-- Copyright (C) 2017  Intel Corporation. All rights reserved.
-- Your use of Intel Corporation's design tools, logic functions 
-- and other software and tools, and its AMPP partner logic 
-- functions, and any output files from any of the foregoing 
-- (including device programming or simulation files), and any 
-- associated documentation or information are expressly subject 
-- to the terms and conditions of the Intel Program License 
-- Subscription Agreement, the Intel Quartus Prime License Agreement,
-- the Intel FPGA IP License Agreement, or other applicable license
-- agreement, including, without limitation, that your use is for
-- the sole purpose of programming logic devices manufactured by
-- Intel and sold by Intel or its authorized distributors.  Please
-- refer to the applicable agreement for further details.

-- Quartus Prime generated Memory Initialization File (.mif)

WIDTH=32;
DEPTH=1024;

ADDRESS_RADIX=HEX;
DATA_RADIX=HEX;

CONTENT BEGIN
    0    :	00002197;
    1    :	1c418193;
    2    :	80c18513;
    3    :	82818613;
    4    :	40a60633;
    5    :	00000593;
    6    :	2bc000ef;
    7    :	00000517;
    8    :	1a450513;
    9    :	154000ef;
    A    :	20c000ef;
    B    :	00012503;
    C    :	00410593;
    D    :	00000613;
    E    :	100000ef;
    F    :	1500006f;
    10   :	00008067;
    11   :	00012537;
    12   :	000127b7;
    13   :	a3850713;
    14   :	a3878793;
    15   :	00e78c63;
    16   :	00000337;
    17   :	00030313;
    18   :	00030663;
    19   :	a3850513;
    1A   :	00030067;
    1B   :	00008067;
    1C   :	000127b7;
    1D   :	00012537;
    1E   :	a3878593;
    1F   :	a3850793;
    20   :	40f585b3;
    21   :	4025d593;
    22   :	00200793;
    23   :	02f5c5b3;
    24   :	00058c63;
    25   :	00000337;
    26   :	00030313;
    27   :	00030663;
    28   :	a3850513;
    29   :	00030067;
    2A   :	00008067;
    2B   :	80c1c703;
    2C   :	04071663;
    2D   :	ff010113;
    2E   :	00812423;
    2F   :	00112623;
    30   :	00078413;
    31   :	f81ff0ef;
    32   :	000007b7;
    33   :	00078793;
    34   :	00078a63;
    35   :	00010537;
    36   :	60050513;
    37   :	ffff0097;
    38   :	eb0080e7;
    39   :	00100793;
    3A   :	80f18623;
    3B   :	00c12083;
    3C   :	00812403;
    3D   :	01010113;
    3E   :	00008067;
    3F   :	00008067;
    40   :	000007b7;
    41   :	00078793;
    42   :	02078663;
    43   :	000125b7;
    44   :	00010537;
    45   :	ff010113;
    46   :	a4858593;
    47   :	60050513;
    48   :	00112623;
    49   :	ffff0097;
    4A   :	e68080e7;
    4B   :	00c12083;
    4C   :	01010113;
    4D   :	f3dff06f;
    4E   :	fe010113;
    4F   :	00812e23;
    50   :	02010413;
    51   :	00a00793;
    52   :	fef42623;
    53   :	01400793;
    54   :	fef42423;
    55   :	000017b7;
    56   :	fec42683;
    57   :	fe842703;
    58   :	00e68733;
    59   :	00e7a023;
    5A   :	00000013;
    5B   :	01c12403;
    5C   :	02010113;
    5D   :	00008067;
    5E   :	00050593;
    5F   :	00000693;
    60   :	00000613;
    61   :	00000513;
    62   :	2280006f;
    63   :	ff010113;
    64   :	00000593;
    65   :	00812423;
    66   :	00112623;
    67   :	00050413;
    68   :	290000ef;
    69   :	000127b7;
    6A   :	a3c7a503;
    6B   :	03c52783;
    6C   :	00078463;
    6D   :	000780e7;
    6E   :	00040513;
    6F   :	384000ef;
    70   :	fe010113;
    71   :	000117b7;
    72   :	00011737;
    73   :	00812c23;
    74   :	60870713;
    75   :	60c78413;
    76   :	40e40433;
    77   :	00912a23;
    78   :	01212823;
    79   :	01312623;
    7A   :	00112e23;
    7B   :	40245413;
    7C   :	00000493;
    7D   :	60c78913;
    7E   :	ffc00993;
    7F   :	02941063;
    80   :	01812403;
    81   :	01c12083;
    82   :	01412483;
    83   :	01012903;
    84   :	00c12983;
    85   :	02010113;
    86   :	e29ff06f;
    87   :	033487b3;
    88   :	00148493;
    89   :	00f907b3;
    8A   :	ffc7a783;
    8B   :	000780e7;
    8C   :	fcdff06f;
    8D   :	ff010113;
    8E   :	00812423;
    8F   :	00912223;
    90   :	00011437;
    91   :	000114b7;
    92   :	60448793;
    93   :	60440413;
    94   :	40f40433;
    95   :	01212023;
    96   :	00112623;
    97   :	40245413;
    98   :	60448493;
    99   :	00000913;
    9A   :	04891263;
    9B   :	000114b7;
    9C   :	dd1ff0ef;
    9D   :	00011437;
    9E   :	60448793;
    9F   :	60840413;
    A0   :	40f40433;
    A1   :	40245413;
    A2   :	60448493;
    A3   :	00000913;
    A4   :	02891863;
    A5   :	00c12083;
    A6   :	00812403;
    A7   :	00412483;
    A8   :	00012903;
    A9   :	01010113;
    AA   :	00008067;
    AB   :	0004a783;
    AC   :	00190913;
    AD   :	00448493;
    AE   :	000780e7;
    AF   :	fadff06f;
    B0   :	0004a783;
    B1   :	00190913;
    B2   :	00448493;
    B3   :	000780e7;
    B4   :	fc1ff06f;
    B5   :	00f00313;
    B6   :	00050713;
    B7   :	02c37e63;
    B8   :	00f77793;
    B9   :	0a079063;
    BA   :	08059263;
    BB   :	ff067693;
    BC   :	00f67613;
    BD   :	00e686b3;
    BE   :	00b72023;
    BF   :	00b72223;
    C0   :	00b72423;
    C1   :	00b72623;
    C2   :	01070713;
    C3   :	fed766e3;
    C4   :	00061463;
    C5   :	00008067;
    C6   :	40c306b3;
    C7   :	00269693;
    C8   :	00000297;
    C9   :	005686b3;
    CA   :	00c68067;
    CB   :	00b70723;
    CC   :	00b706a3;
    CD   :	00b70623;
    CE   :	00b705a3;
    CF   :	00b70523;
    D0   :	00b704a3;
    D1   :	00b70423;
    D2   :	00b703a3;
    D3   :	00b70323;
    D4   :	00b702a3;
    D5   :	00b70223;
    D6   :	00b701a3;
    D7   :	00b70123;
    D8   :	00b700a3;
    D9   :	00b70023;
    DA   :	00008067;
    DB   :	0ff5f593;
    DC   :	00859693;
    DD   :	00d5e5b3;
    DE   :	01059693;
    DF   :	00d5e5b3;
    E0   :	f6dff06f;
    E1   :	00279693;
    E2   :	00000297;
    E3   :	005686b3;
    E4   :	00008293;
    E5   :	fa0680e7;
    E6   :	00028093;
    E7   :	ff078793;
    E8   :	40f70733;
    E9   :	00f60633;
    EA   :	f6c378e3;
    EB   :	f3dff06f;
    EC   :	000127b7;
    ED   :	a3c7a703;
    EE   :	00050313;
    EF   :	14872783;
    F0   :	00079663;
    F1   :	14c70793;
    F2   :	14f72423;
    F3   :	0047a703;
    F4   :	01f00813;
    F5   :	fff00513;
    F6   :	04e84a63;
    F7   :	00271893;
    F8   :	02030c63;
    F9   :	01178533;
    FA   :	08c52423;
    FB   :	1887a803;
    FC   :	00100613;
    FD   :	00e61633;
    FE   :	00c86833;
    FF   :	1907a423;
    100  :	10d52423;
    101  :	00200693;
    102  :	00d31863;
    103  :	18c7a683;
    104  :	00c6e633;
    105  :	18c7a623;
    106  :	00170713;
    107  :	00e7a223;
    108  :	011787b3;
    109  :	00b7a423;
    10A  :	00000513;
    10B  :	00008067;
    10C  :	fd010113;
    10D  :	000127b7;
    10E  :	01312e23;
    10F  :	a3c7a983;
    110  :	01412c23;
    111  :	01512a23;
    112  :	01612823;
    113  :	02112623;
    114  :	02812423;
    115  :	02912223;
    116  :	03212023;
    117  :	01712623;
    118  :	00050a93;
    119  :	00058a13;
    11A  :	00100b13;
    11B  :	1489a483;
    11C  :	00048c63;
    11D  :	0044a403;
    11E  :	fff40913;
    11F  :	00241413;
    120  :	00848433;
    121  :	02095863;
    122  :	02c12083;
    123  :	02812403;
    124  :	02412483;
    125  :	02012903;
    126  :	01c12983;
    127  :	01812a03;
    128  :	01412a83;
    129  :	01012b03;
    12A  :	00c12b83;
    12B  :	03010113;
    12C  :	00008067;
    12D  :	000a0c63;
    12E  :	10442783;
    12F  :	01478863;
    130  :	fff90913;
    131  :	ffc40413;
    132  :	fbdff06f;
    133  :	0044a703;
    134  :	00442783;
    135  :	fff70713;
    136  :	03271c63;
    137  :	0124a223;
    138  :	fe0780e3;
    139  :	1884a683;
    13A  :	012b1733;
    13B  :	0044ab83;
    13C  :	00d776b3;
    13D  :	02069263;
    13E  :	000780e7;
    13F  :	0044a703;
    140  :	1489a783;
    141  :	f77714e3;
    142  :	faf48ce3;
    143  :	f61ff06f;
    144  :	00042223;
    145  :	fcdff06f;
    146  :	18c4a683;
    147  :	08442583;
    148  :	00d77733;
    149  :	00071863;
    14A  :	000a8513;
    14B  :	000780e7;
    14C  :	fcdff06f;
    14D  :	00058513;
    14E  :	000780e7;
    14F  :	fc1ff06f;
    150  :	00000593;
    151  :	00000613;
    152  :	00000693;
    153  :	00000713;
    154  :	00000793;
    155  :	05d00893;
    156  :	00000073;
    157  :	02055263;
    158  :	ff010113;
    159  :	00812423;
    15A  :	00050413;
    15B  :	00112623;
    15C  :	40800433;
    15D  :	010000ef;
    15E  :	00852023;
    15F  :	0000006f;
    160  :	0000006f;
    161  :	8081a503;
    162  :	00008067;
	[163..3FF]  :   00000000;
END;
