-- Copyright (C) 2017  Intel Corporation. All rights reserved.
-- Your use of Intel Corporation's design tools, logic functions 
-- and other software and tools, and its AMPP partner logic 
-- functions, and any output files from any of the foregoing 
-- (including device programming or simulation files), and any 
-- associated documentation or information are expressly subject 
-- to the terms and conditions of the Intel Program License 
-- Subscription Agreement, the Intel Quartus Prime License Agreement,
-- the Intel FPGA IP License Agreement, or other applicable license
-- agreement, including, without limitation, that your use is for
-- the sole purpose of programming logic devices manufactured by
-- Intel and sold by Intel or its authorized distributors.  Please
-- refer to the applicable agreement for further details.

-- Quartus Prime generated Memory Initialization File (.mif)

WIDTH=32;
DEPTH=1024;

ADDRESS_RADIX=HEX;
DATA_RADIX=HEX;

CONTENT BEGIN
    0 : 04C0006F;
    1 : 34202F73;
    2 : 00800F93;
    3 : 03FF0A63;
    4 : 00900F93;
    5 : 03FF0663;
    6 : 00B00F93;
    7 : 03FF0263;
    8 : 00000F17;
    9 : FE0F0F13;
    A : 000F0463;
    B : 000F0067;
    C : 34202F73;
    D : 000F5463;
    E : 0040006F;
    F : 5391E193;
    10 : 00000F17;
    11 : 7C3F2023;
    12 : FF9FF06F;
    13 : F1402573;
    14 : 00051063;
    15 : 00000297;
    16 : 01028293;
    17 : 30529073;
    18 : 18005073;
    19 : 00000297;
    1A : 01C28293;
    1B : 30529073;
    1C : FFF00293;
    1D : 3B029073;
    1E : 01F00293;
    1F : 3A029073;
    20 : 00000297;
    21 : 01828293;
    22 : 30529073;
    23 : 30205073;
    24 : 30305073;
    25 : 30405073;
    26 : 00000193;
    27 : 00000297;
    28 : F6828293;
    29 : 30529073;
    2A : 00100513;
    2B : 01F51513;
    2C : 00054863;
    2D : 0FF0000F;
    2E : 00100193;
    2F : 00000073;
    30 : 00000297;
    31 : F4028293;
    32 : 00028E63;
    33 : 10529073;
    34 : 0000B2B7;
    35 : 10928293;
    36 : 30229073;
    37 : 30202373;
    38 : F4629EE3;
    39 : 30005073;
    3A : 00000297;
    3B : 01428293;
    3C : 34129073;
    3D : F1402573;
    3E : 30200073;
    3F : FF0100B7;
    40 : F0008093;
    41 : 0F0F1137;
    42 : F0F10113;
    43 : 0020EF33;
    44 : FF100EB7;
    45 : F0FE8E93;
    46 : 00200193;
    47 : 4BDF1263;
    48 : 0FF010B7;
    49 : FF008093;
    4A : F0F0F137;
    4B : 0F010113;
    4C : 0020EF33;
    4D : FFF10EB7;
    4E : FF0E8E93;
    4F : 00300193;
    50 : 49DF1063;
    51 : 00FF00B7;
    52 : 0FF08093;
    53 : 0F0F1137;
    54 : F0F10113;
    55 : 0020EF33;
    56 : 0FFF1EB7;
    57 : FFFE8E93;
    58 : 00400193;
    59 : 45DF1E63;
    5A : F00FF0B7;
    5B : 00F08093;
    5C : F0F0F137;
    5D : 0F010113;
    5E : 0020EF33;
    5F : F0FFFEB7;
    60 : 0FFE8E93;
    61 : 00500193;
    62 : 43DF1C63;
    63 : FF0100B7;
    64 : F0008093;
    65 : 0F0F1137;
    66 : F0F10113;
    67 : 0020E0B3;
    68 : FF100EB7;
    69 : F0FE8E93;
    6A : 00600193;
    6B : 41D09A63;
    6C : FF0100B7;
    6D : F0008093;
    6E : 0F0F1137;
    6F : F0F10113;
    70 : 0020E133;
    71 : FF100EB7;
    72 : F0FE8E93;
    73 : 00700193;
    74 : 3FD11863;
    75 : FF0100B7;
    76 : F0008093;
    77 : 0010E0B3;
    78 : FF010EB7;
    79 : F00E8E93;
    7A : 00800193;
    7B : 3DD09A63;
    7C : 00000213;
    7D : FF0100B7;
    7E : F0008093;
    7F : 0F0F1137;
    80 : F0F10113;
    81 : 0020EF33;
    82 : 000F0313;
    83 : 00120213;
    84 : 00200293;
    85 : FE5210E3;
    86 : FF100EB7;
    87 : F0FE8E93;
    88 : 00900193;
    89 : 39D31E63;
    8A : 00000213;
    8B : 0FF010B7;
    8C : FF008093;
    8D : F0F0F137;
    8E : 0F010113;
    8F : 0020EF33;
    90 : 00000013;
    91 : 000F0313;
    92 : 00120213;
    93 : 00200293;
    94 : FC521EE3;
    95 : FFF10EB7;
    96 : FF0E8E93;
    97 : 00A00193;
    98 : 37D31063;
    99 : 00000213;
    9A : 00FF00B7;
    9B : 0FF08093;
    9C : 0F0F1137;
    9D : F0F10113;
    9E : 0020EF33;
    9F : 00000013;
    A0 : 00000013;
    A1 : 000F0313;
    A2 : 00120213;
    A3 : 00200293;
    A4 : FC521CE3;
    A5 : 0FFF1EB7;
    A6 : FFFE8E93;
    A7 : 00B00193;
    A8 : 33D31063;
    A9 : 00000213;
    AA : FF0100B7;
    AB : F0008093;
    AC : 0F0F1137;
    AD : F0F10113;
    AE : 0020EF33;
    AF : 00120213;
    B0 : 00200293;
    B1 : FE5212E3;
    B2 : FF100EB7;
    B3 : F0FE8E93;
    B4 : 00C00193;
    B5 : 2FDF1663;
    B6 : 00000213;
    B7 : 0FF010B7;
    B8 : FF008093;
    B9 : F0F0F137;
    BA : 0F010113;
    BB : 00000013;
    BC : 0020EF33;
    BD : 00120213;
    BE : 00200293;
    BF : FE5210E3;
    C0 : FFF10EB7;
    C1 : FF0E8E93;
    C2 : 00D00193;
    C3 : 2BDF1A63;
    C4 : 00000213;
    C5 : 00FF00B7;
    C6 : 0FF08093;
    C7 : 0F0F1137;
    C8 : F0F10113;
    C9 : 00000013;
    CA : 00000013;
    CB : 0020EF33;
    CC : 00120213;
    CD : 00200293;
    CE : FC521EE3;
    CF : 0FFF1EB7;
    D0 : FFFE8E93;
    D1 : 00E00193;
    D2 : 27DF1C63;
    D3 : 00000213;
    D4 : FF0100B7;
    D5 : F0008093;
    D6 : 00000013;
    D7 : 0F0F1137;
    D8 : F0F10113;
    D9 : 0020EF33;
    DA : 00120213;
    DB : 00200293;
    DC : FE5210E3;
    DD : FF100EB7;
    DE : F0FE8E93;
    DF : 00F00193;
    E0 : 25DF1063;
    E1 : 00000213;
    E2 : 0FF010B7;
    E3 : FF008093;
    E4 : 00000013;
    E5 : F0F0F137;
    E6 : 0F010113;
    E7 : 00000013;
    E8 : 0020EF33;
    E9 : 00120213;
    EA : 00200293;
    EB : FC521EE3;
    EC : FFF10EB7;
    ED : FF0E8E93;
    EE : 01000193;
    EF : 21DF1263;
    F0 : 00000213;
    F1 : 00FF00B7;
    F2 : 0FF08093;
    F3 : 00000013;
    F4 : 00000013;
    F5 : 0F0F1137;
    F6 : F0F10113;
    F7 : 0020EF33;
    F8 : 00120213;
    F9 : 00200293;
    FA : FC521EE3;
    FB : 0FFF1EB7;
    FC : FFFE8E93;
    FD : 01100193;
    FE : 1DDF1463;
    FF : 00000213;
    100 : 0F0F1137;
    101 : F0F10113;
    102 : FF0100B7;
    103 : F0008093;
    104 : 0020EF33;
    105 : 00120213;
    106 : 00200293;
    107 : FE5212E3;
    108 : FF100EB7;
    109 : F0FE8E93;
    10A : 01200193;
    10B : 19DF1A63;
    10C : 00000213;
    10D : F0F0F137;
    10E : 0F010113;
    10F : 0FF010B7;
    110 : FF008093;
    111 : 00000013;
    112 : 0020EF33;
    113 : 00120213;
    114 : 00200293;
    115 : FE5210E3;
    116 : FFF10EB7;
    117 : FF0E8E93;
    118 : 01300193;
    119 : 15DF1E63;
    11A : 00000213;
    11B : 0F0F1137;
    11C : F0F10113;
    11D : 00FF00B7;
    11E : 0FF08093;
    11F : 00000013;
    120 : 00000013;
    121 : 0020EF33;
    122 : 00120213;
    123 : 00200293;
    124 : FC521EE3;
    125 : 0FFF1EB7;
    126 : FFFE8E93;
    127 : 01400193;
    128 : 13DF1063;
    129 : 00000213;
    12A : 0F0F1137;
    12B : F0F10113;
    12C : 00000013;
    12D : FF0100B7;
    12E : F0008093;
    12F : 0020EF33;
    130 : 00120213;
    131 : 00200293;
    132 : FE5210E3;
    133 : FF100EB7;
    134 : F0FE8E93;
    135 : 01500193;
    136 : 0FDF1463;
    137 : 00000213;
    138 : F0F0F137;
    139 : 0F010113;
    13A : 00000013;
    13B : 0FF010B7;
    13C : FF008093;
    13D : 00000013;
    13E : 0020EF33;
    13F : 00120213;
    140 : 00200293;
    141 : FC521EE3;
    142 : FFF10EB7;
    143 : FF0E8E93;
    144 : 01600193;
    145 : 0BDF1663;
    146 : 00000213;
    147 : 0F0F1137;
    148 : F0F10113;
    149 : 00000013;
    14A : 00000013;
    14B : 00FF00B7;
    14C : 0FF08093;
    14D : 0020EF33;
    14E : 00120213;
    14F : 00200293;
    150 : FC521EE3;
    151 : 0FFF1EB7;
    152 : FFFE8E93;
    153 : 01700193;
    154 : 07DF1863;
    155 : FF0100B7;
    156 : F0008093;
    157 : 00106133;
    158 : FF010EB7;
    159 : F00E8E93;
    15A : 01800193;
    15B : 05D11A63;
    15C : 00FF00B7;
    15D : 0FF08093;
    15E : 0000E133;
    15F : 00FF0EB7;
    160 : 0FFE8E93;
    161 : 01900193;
    162 : 03D11C63;
    163 : 000060B3;
    164 : 00000E93;
    165 : 01A00193;
    166 : 03D09463;
    167 : 111110B7;
    168 : 11108093;
    169 : 22222137;
    16A : 22210113;
    16B : 0020E033;
    16C : 00000E93;
    16D : 01B00193;
    16E : 01D01463;
    16F : 00301C63;
    170 : 0FF0000F;
    171 : 00018063;
    172 : 00119193;
    173 : 0011E193;
    174 : 00000073;
    175 : 0FF0000F;
    176 : 00100193;
    177 : 00000073;
    178 : C0001073;
    179 : 00000000;
    17A : 00000000;
    17B : 00000000;
    17C : 00000000;
    17D : 00000000;
    17E : 00000000;
    17F : 00000000;
    180 : 00000000;
    181 : 00000000;
    182 : 00000000;
    183 : 00000000;
    184 : 00000000;
    185 : 00000000;
    186 : 00000000;
    187 : 00000000;
    188 : 00000000;
    189 : 00000000;
    18A : 00000000;
    18B : 00000000;
    18C : 00000000;
    18D : 00000000;
    18E : 00000000;
    18F : 00000000;
    190 : 00000000;
    191 : 00000000;
    192 : 00000000;
    193 : 00000000;
    194 : 00000000;
    195 : 00000000;
    196 : 00000000;
    197 : 00000000;
    198 : 00000000;
    199 : 00000000;
    19A : 00000000;
    19B : 00000000;
    19C : 00000000;
    19D : 00000000;
    19E : 00000000;
    19F : 00000000;
    1A0 : 00000000;
    1A1 : 00000000;
    1A2 : 00000000;
    1A3 : 00000000;
    1A4 : 00000000;
    1A5 : 00000000;
    1A6 : 00000000;
    1A7 : 00000000;
    1A8 : 00000000;
    1A9 : 00000000;
    1AA : 00000000;
    1AB : 00000000;
    1AC : 00000000;
    1AD : 00000000;
    1AE : 00000000;
    1AF : 00000000;
    1B0 : 00000000;
    1B1 : 00000000;
    1B2 : 00000000;
    1B3 : 00000000;
    1B4 : 00000000;
    1B5 : 00000000;
    1B6 : 00000000;
    1B7 : 00000000;
    1B8 : 00000000;
    1B9 : 00000000;
    1BA : 00000000;
    1BB : 00000000;
    1BC : 00000000;
    1BD : 00000000;
    1BE : 00000000;
    1BF : 00000000;
    1C0 : 00000000;
    1C1 : 00000000;
    1C2 : 00000000;
    1C3 : 00000000;
    1C4 : 00000000;
    1C5 : 00000000;
    1C6 : 00000000;
    1C7 : 00000000;
    1C8 : 00000000;
    1C9 : 00000000;
    1CA : 00000000;
    1CB : 00000000;
    1CC : 00000000;
    1CD : 00000000;
    1CE : 00000000;
    1CF : 00000000;
    1D0 : 00000000;
    1D1 : 00000000;
    1D2 : 00000000;
    1D3 : 00000000;
    1D4 : 00000000;
    1D5 : 00000000;
    1D6 : 00000000;
    1D7 : 00000000;
    1D8 : 00000000;
    1D9 : 00000000;
    1DA : 00000000;
    1DB : 00000000;
    1DC : 00000000;
    1DD : 00000000;
    1DE : 00000000;
    1DF : 00000000;
    1E0 : 00000000;
    1E1 : 00000000;
    1E2 : 00000000;
    1E3 : 00000000;
    1E4 : 00000000;
    1E5 : 00000000;
    1E6 : 00000000;
    1E7 : 00000000;
    1E8 : 00000000;
    1E9 : 00000000;
    1EA : 00000000;
    1EB : 00000000;
    1EC : 00000000;
    1ED : 00000000;
    1EE : 00000000;
    1EF : 00000000;
    1F0 : 00000000;
    1F1 : 00000000;
    1F2 : 00000000;
    1F3 : 00000000;
    1F4 : 00000000;
    1F5 : 00000000;
    1F6 : 00000000;
    1F7 : 00000000;
    1F8 : 00000000;
    1F9 : 00000000;
    1FA : 00000000;
    1FB : 00000000;
    1FC : 00000000;
    1FD : 00000000;
    1FE : 00000000;
    1FF : 00000000;
    200 : 00000000;
    201 : 00000000;
    202 : 00000000;
    203 : 00000000;
    204 : 00000000;
    205 : 00000000;
    206 : 00000000;
    207 : 00000000;
    208 : 00000000;
    209 : 00000000;
    20A : 00000000;
    20B : 00000000;
    20C : 00000000;
    20D : 00000000;
    20E : 00000000;
    20F : 00000000;
    210 : 00000000;
    211 : 00000000;
[212..3FF] : 0000000;
END;
