-- Copyright (C) 2017  Intel Corporation. All rights reserved.
-- Your use of Intel Corporation's design tools, logic functions 
-- and other software and tools, and its AMPP partner logic 
-- functions, and any output files from any of the foregoing 
-- (including device programming or simulation files), and any 
-- associated documentation or information are expressly subject 
-- to the terms and conditions of the Intel Program License 
-- Subscription Agreement, the Intel Quartus Prime License Agreement,
-- the Intel FPGA IP License Agreement, or other applicable license
-- agreement, including, without limitation, that your use is for
-- the sole purpose of programming logic devices manufactured by
-- Intel and sold by Intel or its authorized distributors.  Please
-- refer to the applicable agreement for further details.

-- Quartus Prime generated Memory Initialization File (.mif)

WIDTH=32;
DEPTH=1024;

ADDRESS_RADIX=HEX;
DATA_RADIX=HEX;

CONTENT BEGIN
    0 : 04C0006F;
    1 : 34202F73;
    2 : 00800F93;
    3 : 03FF0A63;
    4 : 00900F93;
    5 : 03FF0663;
    6 : 00B00F93;
    7 : 03FF0263;
    8 : 00000F17;
    9 : FE0F0F13;
    A : 000F0463;
    B : 000F0067;
    C : 34202F73;
    D : 000F5463;
    E : 0040006F;
    F : 5391E193;
    10 : 00000F17;
    11 : 7C3F2023;
    12 : FF9FF06F;
    13 : F1402573;
    14 : 00051063;
    15 : 00000297;
    16 : 01028293;
    17 : 30529073;
    18 : 18005073;
    19 : 00000297;
    1A : 01C28293;
    1B : 30529073;
    1C : FFF00293;
    1D : 3B029073;
    1E : 01F00293;
    1F : 3A029073;
    20 : 00000297;
    21 : 01828293;
    22 : 30529073;
    23 : 30205073;
    24 : 30305073;
    25 : 30405073;
    26 : 00000193;
    27 : 00000297;
    28 : F6828293;
    29 : 30529073;
    2A : 00100513;
    2B : 01F51513;
    2C : 00054863;
    2D : 0FF0000F;
    2E : 00100193;
    2F : 00000073;
    30 : 00000297;
    31 : F4028293;
    32 : 00028E63;
    33 : 10529073;
    34 : 0000B2B7;
    35 : 10928293;
    36 : 30229073;
    37 : 30202373;
    38 : F4629EE3;
    39 : 30005073;
    3A : 00000297;
    3B : 01428293;
    3C : 34129073;
    3D : F1402573;
    3E : 30200073;
    3F : 00001097;
    40 : B0408093;
    41 : 0AA00113;
    42 : 00209023;
    43 : 00009F03;
    44 : 0AA00E93;
    45 : 00200193;
    46 : 45DF1E63;
    47 : 00001097;
    48 : AE408093;
    49 : FFFFB137;
    4A : A0010113;
    4B : 00209123;
    4C : 00209F03;
    4D : FFFFBEB7;
    4E : A00E8E93;
    4F : 00300193;
    50 : 43DF1A63;
    51 : 00001097;
    52 : ABC08093;
    53 : BEEF1137;
    54 : AA010113;
    55 : 00209223;
    56 : 0040AF03;
    57 : BEEF1EB7;
    58 : AA0E8E93;
    59 : 00400193;
    5A : 41DF1663;
    5B : 00001097;
    5C : A9408093;
    5D : FFFFA137;
    5E : 00A10113;
    5F : 00209323;
    60 : 00609F03;
    61 : FFFFAEB7;
    62 : 00AE8E93;
    63 : 00500193;
    64 : 3FDF1263;
    65 : 00001097;
    66 : A7A08093;
    67 : 0AA00113;
    68 : FE209D23;
    69 : FFA09F03;
    6A : 0AA00E93;
    6B : 00600193;
    6C : 3DDF1263;
    6D : 00001097;
    6E : A5A08093;
    6F : FFFFB137;
    70 : A0010113;
    71 : FE209E23;
    72 : FFC09F03;
    73 : FFFFBEB7;
    74 : A00E8E93;
    75 : 00700193;
    76 : 39DF1E63;
    77 : 00001097;
    78 : A3208093;
    79 : 00001137;
    7A : AA010113;
    7B : FE209F23;
    7C : FFE09F03;
    7D : 00001EB7;
    7E : AA0E8E93;
    7F : 00800193;
    80 : 37DF1A63;
    81 : 00001097;
    82 : A0A08093;
    83 : FFFFA137;
    84 : 00A10113;
    85 : 00209023;
    86 : 00009F03;
    87 : FFFFAEB7;
    88 : 00AE8E93;
    89 : 00900193;
    8A : 35DF1663;
    8B : 00001097;
    8C : 9E408093;
    8D : 12345137;
    8E : 67810113;
    8F : FE008213;
    90 : 02221023;
    91 : 00009283;
    92 : 00005EB7;
    93 : 678E8E93;
    94 : 00A00193;
    95 : 33D29063;
    96 : 00001097;
    97 : 9B808093;
    98 : 00003137;
    99 : 09810113;
    9A : FFB08093;
    9B : 002093A3;
    9C : 00001217;
    9D : 9A220213;
    9E : 00021283;
    9F : 00003EB7;
    A0 : 098E8E93;
    A1 : 00B00193;
    A2 : 2FD29663;
    A3 : 00C00193;
    A4 : 00000213;
    A5 : FFFFD0B7;
    A6 : CDD08093;
    A7 : 00001117;
    A8 : 96410113;
    A9 : 00111023;
    AA : 00011F03;
    AB : FFFFDEB7;
    AC : CDDE8E93;
    AD : 2DDF1063;
    AE : 00120213;
    AF : 00200293;
    B0 : FC521AE3;
    B1 : 00D00193;
    B2 : 00000213;
    B3 : FFFFC0B7;
    B4 : CCD08093;
    B5 : 00001117;
    B6 : 92C10113;
    B7 : 00000013;
    B8 : 00111123;
    B9 : 00211F03;
    BA : FFFFCEB7;
    BB : CCDE8E93;
    BC : 29DF1263;
    BD : 00120213;
    BE : 00200293;
    BF : FC5218E3;
    C0 : 00E00193;
    C1 : 00000213;
    C2 : FFFFC0B7;
    C3 : BCC08093;
    C4 : 00001117;
    C5 : 8F010113;
    C6 : 00000013;
    C7 : 00000013;
    C8 : 00111223;
    C9 : 00411F03;
    CA : FFFFCEB7;
    CB : BCCE8E93;
    CC : 25DF1263;
    CD : 00120213;
    CE : 00200293;
    CF : FC5216E3;
    D0 : 00F00193;
    D1 : 00000213;
    D2 : FFFFB0B7;
    D3 : BBC08093;
    D4 : 00000013;
    D5 : 00001117;
    D6 : 8AC10113;
    D7 : 00111323;
    D8 : 00611F03;
    D9 : FFFFBEB7;
    DA : BBCE8E93;
    DB : 21DF1463;
    DC : 00120213;
    DD : 00200293;
    DE : FC5218E3;
    DF : 01000193;
    E0 : 00000213;
    E1 : FFFFB0B7;
    E2 : ABB08093;
    E3 : 00000013;
    E4 : 00001117;
    E5 : 87010113;
    E6 : 00000013;
    E7 : 00111423;
    E8 : 00811F03;
    E9 : FFFFBEB7;
    EA : ABBE8E93;
    EB : 1DDF1463;
    EC : 00120213;
    ED : 00200293;
    EE : FC5216E3;
    EF : 01100193;
    F0 : 00000213;
    F1 : FFFFE0B7;
    F2 : AAB08093;
    F3 : 00000013;
    F4 : 00000013;
    F5 : 00001117;
    F6 : 82C10113;
    F7 : 00111523;
    F8 : 00A11F03;
    F9 : FFFFEEB7;
    FA : AABE8E93;
    FB : 19DF1463;
    FC : 00120213;
    FD : 00200293;
    FE : FC5216E3;
    FF : 01200193;
    100 : 00000213;
    101 : 00000117;
    102 : 7FC10113;
    103 : 000020B7;
    104 : 23308093;
    105 : 00111023;
    106 : 00011F03;
    107 : 00002EB7;
    108 : 233E8E93;
    109 : 15DF1863;
    10A : 00120213;
    10B : 00200293;
    10C : FC521AE3;
    10D : 01300193;
    10E : 00000213;
    10F : 00000117;
    110 : 7C410113;
    111 : 000010B7;
    112 : 22308093;
    113 : 00000013;
    114 : 00111123;
    115 : 00211F03;
    116 : 00001EB7;
    117 : 223E8E93;
    118 : 11DF1A63;
    119 : 00120213;
    11A : 00200293;
    11B : FC5218E3;
    11C : 01400193;
    11D : 00000213;
    11E : 00000117;
    11F : 78810113;
    120 : 000010B7;
    121 : 12208093;
    122 : 00000013;
    123 : 00000013;
    124 : 00111223;
    125 : 00411F03;
    126 : 00001EB7;
    127 : 122E8E93;
    128 : 0DDF1A63;
    129 : 00120213;
    12A : 00200293;
    12B : FC5216E3;
    12C : 01500193;
    12D : 00000213;
    12E : 00000117;
    12F : 74810113;
    130 : 00000013;
    131 : 11200093;
    132 : 00111323;
    133 : 00611F03;
    134 : 11200E93;
    135 : 0BDF1063;
    136 : 00120213;
    137 : 00200293;
    138 : FC521CE3;
    139 : 01600193;
    13A : 00000213;
    13B : 00000117;
    13C : 71410113;
    13D : 00000013;
    13E : 01100093;
    13F : 00000013;
    140 : 00111423;
    141 : 00811F03;
    142 : 01100E93;
    143 : 07DF1463;
    144 : 00120213;
    145 : 00200293;
    146 : FC521AE3;
    147 : 01700193;
    148 : 00000213;
    149 : 00000117;
    14A : 6DC10113;
    14B : 00000013;
    14C : 00000013;
    14D : 000030B7;
    14E : 00108093;
    14F : 00111523;
    150 : 00A11F03;
    151 : 00003EB7;
    152 : 001E8E93;
    153 : 03DF1463;
    154 : 00120213;
    155 : 00200293;
    156 : FC5216E3;
    157 : 0000C537;
    158 : EEF50513;
    159 : 00000597;
    15A : 69C58593;
    15B : 00A59323;
    15C : 00301C63;
    15D : 0FF0000F;
    15E : 00018063;
    15F : 00119193;
    160 : 0011E193;
    161 : 00000073;
    162 : 0FF0000F;
    163 : 00100193;
    164 : 00000073;
    165 : C0001073;
    166 : 00000000;
    167 : 00000000;
    168 : 00000000;
    169 : 00000000;
    16A : 00000000;
    16B : 00000000;
    16C : 00000000;
    16D : 00000000;
    16E : 00000000;
    16F : 00000000;
    170 : 00000000;
    171 : 00000000;
    172 : 00000000;
    173 : 00000000;
    174 : 00000000;
    175 : 00000000;
    176 : 00000000;
    177 : 00000000;
    178 : 00000000;
    179 : 00000000;
    17A : 00000000;
    17B : 00000000;
    17C : 00000000;
    17D : 00000000;
    17E : 00000000;
    17F : 00000000;
    180 : 00000000;
    181 : 00000000;
    182 : 00000000;
    183 : 00000000;
    184 : 00000000;
    185 : 00000000;
    186 : 00000000;
    187 : 00000000;
    188 : 00000000;
    189 : 00000000;
    18A : 00000000;
    18B : 00000000;
    18C : 00000000;
    18D : 00000000;
    18E : 00000000;
    18F : 00000000;
    190 : 00000000;
    191 : 00000000;
    192 : 00000000;
    193 : 00000000;
    194 : 00000000;
    195 : 00000000;
    196 : 00000000;
    197 : 00000000;
    198 : 00000000;
    199 : 00000000;
    19A : 00000000;
    19B : 00000000;
    19C : 00000000;
    19D : 00000000;
    19E : 00000000;
    19F : 00000000;
    1A0 : 00000000;
    1A1 : 00000000;
    1A2 : 00000000;
    1A3 : 00000000;
    1A4 : 00000000;
    1A5 : 00000000;
    1A6 : 00000000;
    1A7 : 00000000;
    1A8 : 00000000;
    1A9 : 00000000;
    1AA : 00000000;
    1AB : 00000000;
    1AC : 00000000;
    1AD : 00000000;
    1AE : 00000000;
    1AF : 00000000;
    1B0 : 00000000;
    1B1 : 00000000;
    1B2 : 00000000;
    1B3 : 00000000;
    1B4 : 00000000;
    1B5 : 00000000;
    1B6 : 00000000;
    1B7 : 00000000;
    1B8 : 00000000;
    1B9 : 00000000;
    1BA : 00000000;
    1BB : 00000000;
    1BC : 00000000;
    1BD : 00000000;
    1BE : 00000000;
    1BF : 00000000;
    1C0 : 00000000;
    1C1 : 00000000;
    1C2 : 00000000;
    1C3 : 00000000;
    1C4 : 00000000;
    1C5 : 00000000;
    1C6 : 00000000;
    1C7 : 00000000;
    1C8 : 00000000;
    1C9 : 00000000;
    1CA : 00000000;
    1CB : 00000000;
    1CC : 00000000;
    1CD : 00000000;
    1CE : 00000000;
    1CF : 00000000;
    1D0 : 00000000;
    1D1 : 00000000;
    1D2 : 00000000;
    1D3 : 00000000;
    1D4 : 00000000;
    1D5 : 00000000;
    1D6 : 00000000;
    1D7 : 00000000;
    1D8 : 00000000;
    1D9 : 00000000;
    1DA : 00000000;
    1DB : 00000000;
    1DC : 00000000;
    1DD : 00000000;
    1DE : 00000000;
    1DF : 00000000;
    1E0 : 00000000;
    1E1 : 00000000;
    1E2 : 00000000;
    1E3 : 00000000;
    1E4 : 00000000;
    1E5 : 00000000;
    1E6 : 00000000;
    1E7 : 00000000;
    1E8 : 00000000;
    1E9 : 00000000;
    1EA : 00000000;
    1EB : 00000000;
    1EC : 00000000;
    1ED : 00000000;
    1EE : 00000000;
    1EF : 00000000;
    1F0 : 00000000;
    1F1 : 00000000;
    1F2 : 00000000;
    1F3 : 00000000;
    1F4 : 00000000;
    1F5 : 00000000;
    1F6 : 00000000;
    1F7 : 00000000;
    1F8 : 00000000;
    1F9 : 00000000;
    1FA : 00000000;
    1FB : 00000000;
    1FC : 00000000;
    1FD : 00000000;
    1FE : 00000000;
    1FF : 00000000;
    200 : 00000000;
    201 : 00000000;
    202 : 00000000;
    203 : 00000000;
    204 : 00000000;
    205 : 00000000;
    206 : 00000000;
    207 : 00000000;
    208 : 00000000;
    209 : 00000000;
    20A : 00000000;
    20B : 00000000;
    20C : 00000000;
    20D : 00000000;
    20E : 00000000;
    20F : 00000000;
    210 : 00000000;
    211 : 00000000;
    212 : 00000000;
    213 : 00000000;
    214 : 00000000;
    215 : 00000000;
    216 : 00000000;
    217 : 00000000;
    218 : 00000000;
    219 : 00000000;
    21A : 00000000;
    21B : 00000000;
    21C : 00000000;
    21D : 00000000;
    21E : 00000000;
    21F : 00000000;
    220 : 00000000;
    221 : 00000000;
    222 : 00000000;
    223 : 00000000;
    224 : 00000000;
    225 : 00000000;
    226 : 00000000;
    227 : 00000000;
    228 : 00000000;
    229 : 00000000;
    22A : 00000000;
    22B : 00000000;
    22C : 00000000;
    22D : 00000000;
    22E : 00000000;
    22F : 00000000;
    230 : 00000000;
    231 : 00000000;
    232 : 00000000;
    233 : 00000000;
    234 : 00000000;
    235 : 00000000;
    236 : 00000000;
    237 : 00000000;
    238 : 00000000;
    239 : 00000000;
    23A : 00000000;
    23B : 00000000;
    23C : 00000000;
    23D : 00000000;
    23E : 00000000;
    23F : 00000000;
    240 : 00000000;
    241 : 00000000;
    242 : 00000000;
    243 : 00000000;
    244 : 00000000;
    245 : 00000000;
    246 : 00000000;
    247 : 00000000;
    248 : 00000000;
    249 : 00000000;
    24A : 00000000;
    24B : 00000000;
    24C : 00000000;
    24D : 00000000;
    24E : 00000000;
    24F : 00000000;
    250 : 00000000;
    251 : 00000000;
    252 : 00000000;
    253 : 00000000;
    254 : 00000000;
    255 : 00000000;
    256 : 00000000;
    257 : 00000000;
    258 : 00000000;
    259 : 00000000;
    25A : 00000000;
    25B : 00000000;
    25C : 00000000;
    25D : 00000000;
    25E : 00000000;
    25F : 00000000;
    260 : 00000000;
    261 : 00000000;
    262 : 00000000;
    263 : 00000000;
    264 : 00000000;
    265 : 00000000;
    266 : 00000000;
    267 : 00000000;
    268 : 00000000;
    269 : 00000000;
    26A : 00000000;
    26B : 00000000;
    26C : 00000000;
    26D : 00000000;
    26E : 00000000;
    26F : 00000000;
    270 : 00000000;
    271 : 00000000;
    272 : 00000000;
    273 : 00000000;
    274 : 00000000;
    275 : 00000000;
    276 : 00000000;
    277 : 00000000;
    278 : 00000000;
    279 : 00000000;
    27A : 00000000;
    27B : 00000000;
    27C : 00000000;
    27D : 00000000;
    27E : 00000000;
    27F : 00000000;
    280 : 00000000;
    281 : 00000000;
    282 : 00000000;
    283 : 00000000;
    284 : 00000000;
    285 : 00000000;
    286 : 00000000;
    287 : 00000000;
    288 : 00000000;
    289 : 00000000;
    28A : 00000000;
    28B : 00000000;
    28C : 00000000;
    28D : 00000000;
    28E : 00000000;
    28F : 00000000;
    290 : 00000000;
    291 : 00000000;
    292 : 00000000;
    293 : 00000000;
    294 : 00000000;
    295 : 00000000;
    296 : 00000000;
    297 : 00000000;
    298 : 00000000;
    299 : 00000000;
    29A : 00000000;
    29B : 00000000;
    29C : 00000000;
    29D : 00000000;
    29E : 00000000;
    29F : 00000000;
    2A0 : 00000000;
    2A1 : 00000000;
    2A2 : 00000000;
    2A3 : 00000000;
    2A4 : 00000000;
    2A5 : 00000000;
    2A6 : 00000000;
    2A7 : 00000000;
    2A8 : 00000000;
    2A9 : 00000000;
    2AA : 00000000;
    2AB : 00000000;
    2AC : 00000000;
    2AD : 00000000;
    2AE : 00000000;
    2AF : 00000000;
    2B0 : 00000000;
    2B1 : 00000000;
    2B2 : 00000000;
    2B3 : 00000000;
    2B4 : 00000000;
    2B5 : 00000000;
    2B6 : 00000000;
    2B7 : 00000000;
    2B8 : 00000000;
    2B9 : 00000000;
    2BA : 00000000;
    2BB : 00000000;
    2BC : 00000000;
    2BD : 00000000;
    2BE : 00000000;
    2BF : 00000000;
    2C0 : 00000000;
    2C1 : 00000000;
    2C2 : 00000000;
    2C3 : 00000000;
    2C4 : 00000000;
    2C5 : 00000000;
    2C6 : 00000000;
    2C7 : 00000000;
    2C8 : 00000000;
    2C9 : 00000000;
    2CA : 00000000;
    2CB : 00000000;
    2CC : 00000000;
    2CD : 00000000;
    2CE : 00000000;
    2CF : 00000000;
    2D0 : 00000000;
    2D1 : 00000000;
    2D2 : 00000000;
    2D3 : 00000000;
    2D4 : 00000000;
    2D5 : 00000000;
    2D6 : 00000000;
    2D7 : 00000000;
    2D8 : 00000000;
    2D9 : 00000000;
    2DA : 00000000;
    2DB : 00000000;
    2DC : 00000000;
    2DD : 00000000;
    2DE : 00000000;
    2DF : 00000000;
    2E0 : 00000000;
    2E1 : 00000000;
    2E2 : 00000000;
    2E3 : 00000000;
    2E4 : 00000000;
    2E5 : 00000000;
    2E6 : 00000000;
    2E7 : 00000000;
    2E8 : 00000000;
    2E9 : 00000000;
    2EA : 00000000;
    2EB : 00000000;
    2EC : 00000000;
    2ED : 00000000;
    2EE : 00000000;
    2EF : 00000000;
    2F0 : 00000000;
    2F1 : 00000000;
    2F2 : 00000000;
    2F3 : 00000000;
    2F4 : 00000000;
    2F5 : 00000000;
    2F6 : 00000000;
    2F7 : 00000000;
    2F8 : 00000000;
    2F9 : 00000000;
    2FA : 00000000;
    2FB : 00000000;
    2FC : 00000000;
    2FD : 00000000;
    2FE : 00000000;
    2FF : 00000000;
    300 : BEEFBEEF;
    301 : BEEFBEEF;
    302 : BEEFBEEF;
    303 : BEEFBEEF;
    304 : BEEFBEEF;
    305 : 00000000;
    306 : 00000000;
    307 : 00000000;
[308..3FF] : 0000000;
END;
