-- Copyright (C) 2017  Intel Corporation. All rights reserved.
-- Your use of Intel Corporation's design tools, logic functions 
-- and other software and tools, and its AMPP partner logic 
-- functions, and any output files from any of the foregoing 
-- (including device programming or simulation files), and any 
-- associated documentation or information are expressly subject 
-- to the terms and conditions of the Intel Program License 
-- Subscription Agreement, the Intel Quartus Prime License Agreement,
-- the Intel FPGA IP License Agreement, or other applicable license
-- agreement, including, without limitation, that your use is for
-- the sole purpose of programming logic devices manufactured by
-- Intel and sold by Intel or its authorized distributors.  Please
-- refer to the applicable agreement for further details.

-- Quartus Prime generated Memory Initialization File (.mif)

WIDTH=32;
DEPTH=1024;

ADDRESS_RADIX=HEX;
DATA_RADIX=HEX;

CONTENT BEGIN
    0 : 04C0006F;
    1 : 34202F73;
    2 : 00800F93;
    3 : 03FF0A63;
    4 : 00900F93;
    5 : 03FF0663;
    6 : 00B00F93;
    7 : 03FF0263;
    8 : 00000F17;
    9 : FE0F0F13;
    A : 000F0463;
    B : 000F0067;
    C : 34202F73;
    D : 000F5463;
    E : 0040006F;
    F : 5391E193;
    10 : 00000F17;
    11 : 7C3F2023;
    12 : FF9FF06F;
    13 : F1402573;
    14 : 00051063;
    15 : 00000297;
    16 : 01028293;
    17 : 30529073;
    18 : 18005073;
    19 : 00000297;
    1A : 01C28293;
    1B : 30529073;
    1C : FFF00293;
    1D : 3B029073;
    1E : 01F00293;
    1F : 3A029073;
    20 : 00000297;
    21 : 01828293;
    22 : 30529073;
    23 : 30205073;
    24 : 30305073;
    25 : 30405073;
    26 : 00000193;
    27 : 00000297;
    28 : F6828293;
    29 : 30529073;
    2A : 00100513;
    2B : 01F51513;
    2C : 00054863;
    2D : 0FF0000F;
    2E : 00100193;
    2F : 00000073;
    30 : 00000297;
    31 : F4028293;
    32 : 00028E63;
    33 : 10529073;
    34 : 0000B2B7;
    35 : 10928293;
    36 : 30229073;
    37 : 30202373;
    38 : F4629EE3;
    39 : 30005073;
    3A : 00000297;
    3B : 01428293;
    3C : 34129073;
    3D : F1402573;
    3E : 30200073;
    3F : 00200193;
    40 : 00000093;
    41 : 00100113;
    42 : 0020E663;
    43 : 2E301263;
    44 : 00301663;
    45 : FE20EEE3;
    46 : 2C301C63;
    47 : 00300193;
    48 : FFE00093;
    49 : FFF00113;
    4A : 0020E663;
    4B : 2C301263;
    4C : 00301663;
    4D : FE20EEE3;
    4E : 2A301C63;
    4F : 00400193;
    50 : 00000093;
    51 : FFF00113;
    52 : 0020E663;
    53 : 2A301263;
    54 : 00301663;
    55 : FE20EEE3;
    56 : 28301C63;
    57 : 00500193;
    58 : 00100093;
    59 : 00000113;
    5A : 0020E463;
    5B : 00301463;
    5C : 28301063;
    5D : FE20EEE3;
    5E : 00600193;
    5F : FFF00093;
    60 : FFE00113;
    61 : 0020E463;
    62 : 00301463;
    63 : 26301263;
    64 : FE20EEE3;
    65 : 00700193;
    66 : FFF00093;
    67 : 00000113;
    68 : 0020E463;
    69 : 00301463;
    6A : 24301463;
    6B : FE20EEE3;
    6C : 00800193;
    6D : 800000B7;
    6E : 80000137;
    6F : FFF10113;
    70 : 0020E463;
    71 : 00301463;
    72 : 22301463;
    73 : FE20EEE3;
    74 : 00900193;
    75 : 00000213;
    76 : F00000B7;
    77 : F0000137;
    78 : FFF10113;
    79 : 2020E663;
    7A : 00120213;
    7B : 00200293;
    7C : FE5214E3;
    7D : 00A00193;
    7E : 00000213;
    7F : F00000B7;
    80 : F0000137;
    81 : FFF10113;
    82 : 00000013;
    83 : 1E20E263;
    84 : 00120213;
    85 : 00200293;
    86 : FE5212E3;
    87 : 00B00193;
    88 : 00000213;
    89 : F00000B7;
    8A : F0000137;
    8B : FFF10113;
    8C : 00000013;
    8D : 00000013;
    8E : 1A20EC63;
    8F : 00120213;
    90 : 00200293;
    91 : FE5210E3;
    92 : 00C00193;
    93 : 00000213;
    94 : F00000B7;
    95 : 00000013;
    96 : F0000137;
    97 : FFF10113;
    98 : 1820E863;
    99 : 00120213;
    9A : 00200293;
    9B : FE5212E3;
    9C : 00D00193;
    9D : 00000213;
    9E : F00000B7;
    9F : 00000013;
    A0 : F0000137;
    A1 : FFF10113;
    A2 : 00000013;
    A3 : 1620E263;
    A4 : 00120213;
    A5 : 00200293;
    A6 : FE5210E3;
    A7 : 00E00193;
    A8 : 00000213;
    A9 : F00000B7;
    AA : 00000013;
    AB : 00000013;
    AC : F0000137;
    AD : FFF10113;
    AE : 1220EC63;
    AF : 00120213;
    B0 : 00200293;
    B1 : FE5210E3;
    B2 : 00F00193;
    B3 : 00000213;
    B4 : F00000B7;
    B5 : F0000137;
    B6 : FFF10113;
    B7 : 1020EA63;
    B8 : 00120213;
    B9 : 00200293;
    BA : FE5214E3;
    BB : 01000193;
    BC : 00000213;
    BD : F00000B7;
    BE : F0000137;
    BF : FFF10113;
    C0 : 00000013;
    C1 : 0E20E663;
    C2 : 00120213;
    C3 : 00200293;
    C4 : FE5212E3;
    C5 : 01100193;
    C6 : 00000213;
    C7 : F00000B7;
    C8 : F0000137;
    C9 : FFF10113;
    CA : 00000013;
    CB : 00000013;
    CC : 0C20E063;
    CD : 00120213;
    CE : 00200293;
    CF : FE5210E3;
    D0 : 01200193;
    D1 : 00000213;
    D2 : F00000B7;
    D3 : 00000013;
    D4 : F0000137;
    D5 : FFF10113;
    D6 : 0820EC63;
    D7 : 00120213;
    D8 : 00200293;
    D9 : FE5212E3;
    DA : 01300193;
    DB : 00000213;
    DC : F00000B7;
    DD : 00000013;
    DE : F0000137;
    DF : FFF10113;
    E0 : 00000013;
    E1 : 0620E663;
    E2 : 00120213;
    E3 : 00200293;
    E4 : FE5210E3;
    E5 : 01400193;
    E6 : 00000213;
    E7 : F00000B7;
    E8 : 00000013;
    E9 : 00000013;
    EA : F0000137;
    EB : FFF10113;
    EC : 0420E063;
    ED : 00120213;
    EE : 00200293;
    EF : FE5210E3;
    F0 : 00100093;
    F1 : 00106A63;
    F2 : 00108093;
    F3 : 00108093;
    F4 : 00108093;
    F5 : 00108093;
    F6 : 00108093;
    F7 : 00108093;
    F8 : 00300E93;
    F9 : 01500193;
    FA : 01D09463;
    FB : 00301C63;
    FC : 0FF0000F;
    FD : 00018063;
    FE : 00119193;
    FF : 0011E193;
    100 : 00000073;
    101 : 0FF0000F;
    102 : 00100193;
    103 : 00000073;
    104 : C0001073;
    105 : 00000000;
    106 : 00000000;
    107 : 00000000;
    108 : 00000000;
    109 : 00000000;
    10A : 00000000;
    10B : 00000000;
    10C : 00000000;
    10D : 00000000;
    10E : 00000000;
    10F : 00000000;
    110 : 00000000;
    111 : 00000000;
    112 : 00000000;
    113 : 00000000;
    114 : 00000000;
    115 : 00000000;
    116 : 00000000;
    117 : 00000000;
    118 : 00000000;
    119 : 00000000;
    11A : 00000000;
    11B : 00000000;
    11C : 00000000;
    11D : 00000000;
    11E : 00000000;
    11F : 00000000;
    120 : 00000000;
    121 : 00000000;
    122 : 00000000;
    123 : 00000000;
    124 : 00000000;
    125 : 00000000;
    126 : 00000000;
    127 : 00000000;
    128 : 00000000;
    129 : 00000000;
    12A : 00000000;
    12B : 00000000;
    12C : 00000000;
    12D : 00000000;
    12E : 00000000;
    12F : 00000000;
    130 : 00000000;
    131 : 00000000;
    132 : 00000000;
    133 : 00000000;
    134 : 00000000;
    135 : 00000000;
    136 : 00000000;
    137 : 00000000;
    138 : 00000000;
    139 : 00000000;
    13A : 00000000;
    13B : 00000000;
    13C : 00000000;
    13D : 00000000;
    13E : 00000000;
    13F : 00000000;
    140 : 00000000;
    141 : 00000000;
    142 : 00000000;
    143 : 00000000;
    144 : 00000000;
    145 : 00000000;
    146 : 00000000;
    147 : 00000000;
    148 : 00000000;
    149 : 00000000;
    14A : 00000000;
    14B : 00000000;
    14C : 00000000;
    14D : 00000000;
    14E : 00000000;
    14F : 00000000;
    150 : 00000000;
    151 : 00000000;
    152 : 00000000;
    153 : 00000000;
    154 : 00000000;
    155 : 00000000;
    156 : 00000000;
    157 : 00000000;
    158 : 00000000;
    159 : 00000000;
    15A : 00000000;
    15B : 00000000;
    15C : 00000000;
    15D : 00000000;
    15E : 00000000;
    15F : 00000000;
    160 : 00000000;
    161 : 00000000;
    162 : 00000000;
    163 : 00000000;
    164 : 00000000;
    165 : 00000000;
    166 : 00000000;
    167 : 00000000;
    168 : 00000000;
    169 : 00000000;
    16A : 00000000;
    16B : 00000000;
    16C : 00000000;
    16D : 00000000;
    16E : 00000000;
    16F : 00000000;
    170 : 00000000;
    171 : 00000000;
    172 : 00000000;
    173 : 00000000;
    174 : 00000000;
    175 : 00000000;
    176 : 00000000;
    177 : 00000000;
    178 : 00000000;
    179 : 00000000;
    17A : 00000000;
    17B : 00000000;
    17C : 00000000;
    17D : 00000000;
    17E : 00000000;
    17F : 00000000;
    180 : 00000000;
    181 : 00000000;
    182 : 00000000;
    183 : 00000000;
    184 : 00000000;
    185 : 00000000;
    186 : 00000000;
    187 : 00000000;
    188 : 00000000;
    189 : 00000000;
    18A : 00000000;
    18B : 00000000;
    18C : 00000000;
    18D : 00000000;
    18E : 00000000;
    18F : 00000000;
    190 : 00000000;
    191 : 00000000;
    192 : 00000000;
    193 : 00000000;
    194 : 00000000;
    195 : 00000000;
    196 : 00000000;
    197 : 00000000;
    198 : 00000000;
    199 : 00000000;
    19A : 00000000;
    19B : 00000000;
    19C : 00000000;
    19D : 00000000;
    19E : 00000000;
    19F : 00000000;
    1A0 : 00000000;
    1A1 : 00000000;
    1A2 : 00000000;
    1A3 : 00000000;
    1A4 : 00000000;
    1A5 : 00000000;
    1A6 : 00000000;
    1A7 : 00000000;
    1A8 : 00000000;
    1A9 : 00000000;
    1AA : 00000000;
    1AB : 00000000;
    1AC : 00000000;
    1AD : 00000000;
    1AE : 00000000;
    1AF : 00000000;
    1B0 : 00000000;
    1B1 : 00000000;
    1B2 : 00000000;
    1B3 : 00000000;
    1B4 : 00000000;
    1B5 : 00000000;
    1B6 : 00000000;
    1B7 : 00000000;
    1B8 : 00000000;
    1B9 : 00000000;
    1BA : 00000000;
    1BB : 00000000;
    1BC : 00000000;
    1BD : 00000000;
    1BE : 00000000;
    1BF : 00000000;
    1C0 : 00000000;
    1C1 : 00000000;
    1C2 : 00000000;
    1C3 : 00000000;
    1C4 : 00000000;
    1C5 : 00000000;
    1C6 : 00000000;
    1C7 : 00000000;
    1C8 : 00000000;
    1C9 : 00000000;
    1CA : 00000000;
    1CB : 00000000;
    1CC : 00000000;
    1CD : 00000000;
    1CE : 00000000;
    1CF : 00000000;
    1D0 : 00000000;
    1D1 : 00000000;
    1D2 : 00000000;
    1D3 : 00000000;
    1D4 : 00000000;
    1D5 : 00000000;
    1D6 : 00000000;
    1D7 : 00000000;
    1D8 : 00000000;
    1D9 : 00000000;
    1DA : 00000000;
    1DB : 00000000;
    1DC : 00000000;
    1DD : 00000000;
    1DE : 00000000;
    1DF : 00000000;
    1E0 : 00000000;
    1E1 : 00000000;
    1E2 : 00000000;
    1E3 : 00000000;
    1E4 : 00000000;
    1E5 : 00000000;
    1E6 : 00000000;
    1E7 : 00000000;
    1E8 : 00000000;
    1E9 : 00000000;
    1EA : 00000000;
    1EB : 00000000;
    1EC : 00000000;
    1ED : 00000000;
    1EE : 00000000;
    1EF : 00000000;
    1F0 : 00000000;
    1F1 : 00000000;
    1F2 : 00000000;
    1F3 : 00000000;
    1F4 : 00000000;
    1F5 : 00000000;
    1F6 : 00000000;
    1F7 : 00000000;
    1F8 : 00000000;
    1F9 : 00000000;
    1FA : 00000000;
    1FB : 00000000;
    1FC : 00000000;
    1FD : 00000000;
    1FE : 00000000;
    1FF : 00000000;
    200 : 00000000;
    201 : 00000000;
    202 : 00000000;
    203 : 00000000;
    204 : 00000000;
    205 : 00000000;
    206 : 00000000;
    207 : 00000000;
    208 : 00000000;
    209 : 00000000;
    20A : 00000000;
    20B : 00000000;
    20C : 00000000;
    20D : 00000000;
    20E : 00000000;
    20F : 00000000;
    210 : 00000000;
    211 : 00000000;
[212..3FF] : 0000000;
END;
