-- Copyright (C) 2017  Intel Corporation. All rights reserved.
-- Your use of Intel Corporation's design tools, logic functions 
-- and other software and tools, and its AMPP partner logic 
-- functions, and any output files from any of the foregoing 
-- (including device programming or simulation files), and any 
-- associated documentation or information are expressly subject 
-- to the terms and conditions of the Intel Program License 
-- Subscription Agreement, the Intel Quartus Prime License Agreement,
-- the Intel FPGA IP License Agreement, or other applicable license
-- agreement, including, without limitation, that your use is for
-- the sole purpose of programming logic devices manufactured by
-- Intel and sold by Intel or its authorized distributors.  Please
-- refer to the applicable agreement for further details.

-- Quartus Prime generated Memory Initialization File (.mif)

WIDTH=32;
DEPTH=1024;

ADDRESS_RADIX=HEX;
DATA_RADIX=HEX;

CONTENT BEGIN
    0 : 04C0006F;
    1 : 34202F73;
    2 : 00800F93;
    3 : 03FF0A63;
    4 : 00900F93;
    5 : 03FF0663;
    6 : 00B00F93;
    7 : 03FF0263;
    8 : 00000F17;
    9 : FE0F0F13;
    A : 000F0463;
    B : 000F0067;
    C : 34202F73;
    D : 000F5463;
    E : 0040006F;
    F : 5391E193;
    10 : 00000F17;
    11 : 7C3F2023;
    12 : FF9FF06F;
    13 : F1402573;
    14 : 00051063;
    15 : 00000297;
    16 : 01028293;
    17 : 30529073;
    18 : 18005073;
    19 : 00000297;
    1A : 01C28293;
    1B : 30529073;
    1C : FFF00293;
    1D : 3B029073;
    1E : 01F00293;
    1F : 3A029073;
    20 : 00000297;
    21 : 01828293;
    22 : 30529073;
    23 : 30205073;
    24 : 30305073;
    25 : 30405073;
    26 : 00000193;
    27 : 00000297;
    28 : F6828293;
    29 : 30529073;
    2A : 00100513;
    2B : 01F51513;
    2C : 00054863;
    2D : 0FF0000F;
    2E : 00100193;
    2F : 00000073;
    30 : 00000297;
    31 : F4028293;
    32 : 00028E63;
    33 : 10529073;
    34 : 0000B2B7;
    35 : 10928293;
    36 : 30229073;
    37 : 30202373;
    38 : F4629EE3;
    39 : 30005073;
    3A : 00000297;
    3B : 01428293;
    3C : 34129073;
    3D : F1402573;
    3E : 30200073;
    3F : 00000093;
    40 : 00000113;
    41 : 00208F33;
    42 : 00000E93;
    43 : 00200193;
    44 : 4DDF1663;
    45 : 00100093;
    46 : 00100113;
    47 : 00208F33;
    48 : 00200E93;
    49 : 00300193;
    4A : 4BDF1A63;
    4B : 00300093;
    4C : 00700113;
    4D : 00208F33;
    4E : 00A00E93;
    4F : 00400193;
    50 : 49DF1E63;
    51 : 00000093;
    52 : FFFF8137;
    53 : 00208F33;
    54 : FFFF8EB7;
    55 : 00500193;
    56 : 49DF1263;
    57 : 800000B7;
    58 : 00000113;
    59 : 00208F33;
    5A : 80000EB7;
    5B : 00600193;
    5C : 47DF1663;
    5D : 800000B7;
    5E : FFFF8137;
    5F : 00208F33;
    60 : 7FFF8EB7;
    61 : 00700193;
    62 : 45DF1A63;
    63 : 00000093;
    64 : 00008137;
    65 : FFF10113;
    66 : 00208F33;
    67 : 00008EB7;
    68 : FFFE8E93;
    69 : 00800193;
    6A : 43DF1A63;
    6B : 800000B7;
    6C : FFF08093;
    6D : 00000113;
    6E : 00208F33;
    6F : 80000EB7;
    70 : FFFE8E93;
    71 : 00900193;
    72 : 41DF1A63;
    73 : 800000B7;
    74 : FFF08093;
    75 : 00008137;
    76 : FFF10113;
    77 : 00208F33;
    78 : 80008EB7;
    79 : FFEE8E93;
    7A : 00A00193;
    7B : 3FDF1863;
    7C : 800000B7;
    7D : 00008137;
    7E : FFF10113;
    7F : 00208F33;
    80 : 80008EB7;
    81 : FFFE8E93;
    82 : 00B00193;
    83 : 3DDF1863;
    84 : 800000B7;
    85 : FFF08093;
    86 : FFFF8137;
    87 : 00208F33;
    88 : 7FFF8EB7;
    89 : FFFE8E93;
    8A : 00C00193;
    8B : 3BDF1863;
    8C : 00000093;
    8D : FFF00113;
    8E : 00208F33;
    8F : FFF00E93;
    90 : 00D00193;
    91 : 39DF1C63;
    92 : FFF00093;
    93 : 00100113;
    94 : 00208F33;
    95 : 00000E93;
    96 : 00E00193;
    97 : 39DF1063;
    98 : FFF00093;
    99 : FFF00113;
    9A : 00208F33;
    9B : FFE00E93;
    9C : 00F00193;
    9D : 37DF1463;
    9E : 00100093;
    9F : 80000137;
    A0 : FFF10113;
    A1 : 00208F33;
    A2 : 80000EB7;
    A3 : 01000193;
    A4 : 35DF1663;
    A5 : 00D00093;
    A6 : 00B00113;
    A7 : 002080B3;
    A8 : 01800E93;
    A9 : 01100193;
    AA : 33D09A63;
    AB : 00E00093;
    AC : 00B00113;
    AD : 00208133;
    AE : 01900E93;
    AF : 01200193;
    B0 : 31D11E63;
    B1 : 00D00093;
    B2 : 001080B3;
    B3 : 01A00E93;
    B4 : 01300193;
    B5 : 31D09463;
    B6 : 00000213;
    B7 : 00D00093;
    B8 : 00B00113;
    B9 : 00208F33;
    BA : 000F0313;
    BB : 00120213;
    BC : 00200293;
    BD : FE5214E3;
    BE : 01800E93;
    BF : 01400193;
    C0 : 2DD31E63;
    C1 : 00000213;
    C2 : 00E00093;
    C3 : 00B00113;
    C4 : 00208F33;
    C5 : 00000013;
    C6 : 000F0313;
    C7 : 00120213;
    C8 : 00200293;
    C9 : FE5212E3;
    CA : 01900E93;
    CB : 01500193;
    CC : 2BD31663;
    CD : 00000213;
    CE : 00F00093;
    CF : 00B00113;
    D0 : 00208F33;
    D1 : 00000013;
    D2 : 00000013;
    D3 : 000F0313;
    D4 : 00120213;
    D5 : 00200293;
    D6 : FE5210E3;
    D7 : 01A00E93;
    D8 : 01600193;
    D9 : 27D31C63;
    DA : 00000213;
    DB : 00D00093;
    DC : 00B00113;
    DD : 00208F33;
    DE : 00120213;
    DF : 00200293;
    E0 : FE5216E3;
    E1 : 01800E93;
    E2 : 01700193;
    E3 : 25DF1863;
    E4 : 00000213;
    E5 : 00E00093;
    E6 : 00B00113;
    E7 : 00000013;
    E8 : 00208F33;
    E9 : 00120213;
    EA : 00200293;
    EB : FE5214E3;
    EC : 01900E93;
    ED : 01800193;
    EE : 23DF1263;
    EF : 00000213;
    F0 : 00F00093;
    F1 : 00B00113;
    F2 : 00000013;
    F3 : 00000013;
    F4 : 00208F33;
    F5 : 00120213;
    F6 : 00200293;
    F7 : FE5212E3;
    F8 : 01A00E93;
    F9 : 01900193;
    FA : 1FDF1A63;
    FB : 00000213;
    FC : 00D00093;
    FD : 00000013;
    FE : 00B00113;
    FF : 00208F33;
    100 : 00120213;
    101 : 00200293;
    102 : FE5214E3;
    103 : 01800E93;
    104 : 01A00193;
    105 : 1DDF1463;
    106 : 00000213;
    107 : 00E00093;
    108 : 00000013;
    109 : 00B00113;
    10A : 00000013;
    10B : 00208F33;
    10C : 00120213;
    10D : 00200293;
    10E : FE5212E3;
    10F : 01900E93;
    110 : 01B00193;
    111 : 19DF1C63;
    112 : 00000213;
    113 : 00F00093;
    114 : 00000013;
    115 : 00000013;
    116 : 00B00113;
    117 : 00208F33;
    118 : 00120213;
    119 : 00200293;
    11A : FE5212E3;
    11B : 01A00E93;
    11C : 01C00193;
    11D : 17DF1463;
    11E : 00000213;
    11F : 00B00113;
    120 : 00D00093;
    121 : 00208F33;
    122 : 00120213;
    123 : 00200293;
    124 : FE5216E3;
    125 : 01800E93;
    126 : 01D00193;
    127 : 15DF1063;
    128 : 00000213;
    129 : 00B00113;
    12A : 00E00093;
    12B : 00000013;
    12C : 00208F33;
    12D : 00120213;
    12E : 00200293;
    12F : FE5214E3;
    130 : 01900E93;
    131 : 01E00193;
    132 : 11DF1A63;
    133 : 00000213;
    134 : 00B00113;
    135 : 00F00093;
    136 : 00000013;
    137 : 00000013;
    138 : 00208F33;
    139 : 00120213;
    13A : 00200293;
    13B : FE5212E3;
    13C : 01A00E93;
    13D : 01F00193;
    13E : 0FDF1263;
    13F : 00000213;
    140 : 00B00113;
    141 : 00000013;
    142 : 00D00093;
    143 : 00208F33;
    144 : 00120213;
    145 : 00200293;
    146 : FE5214E3;
    147 : 01800E93;
    148 : 02000193;
    149 : 0BDF1C63;
    14A : 00000213;
    14B : 00B00113;
    14C : 00000013;
    14D : 00E00093;
    14E : 00000013;
    14F : 00208F33;
    150 : 00120213;
    151 : 00200293;
    152 : FE5212E3;
    153 : 01900E93;
    154 : 02100193;
    155 : 09DF1463;
    156 : 00000213;
    157 : 00B00113;
    158 : 00000013;
    159 : 00000013;
    15A : 00F00093;
    15B : 00208F33;
    15C : 00120213;
    15D : 00200293;
    15E : FE5212E3;
    15F : 01A00E93;
    160 : 02200193;
    161 : 05DF1C63;
    162 : 00F00093;
    163 : 00100133;
    164 : 00F00E93;
    165 : 02300193;
    166 : 05D11263;
    167 : 02000093;
    168 : 00008133;
    169 : 02000E93;
    16A : 02400193;
    16B : 03D11863;
    16C : 000000B3;
    16D : 00000E93;
    16E : 02500193;
    16F : 03D09063;
    170 : 01000093;
    171 : 01E00113;
    172 : 00208033;
    173 : 00000E93;
    174 : 02600193;
    175 : 01D01463;
    176 : 00301C63;
    177 : 0FF0000F;
    178 : 00018063;
    179 : 00119193;
    17A : 0011E193;
    17B : 00000073;
    17C : 0FF0000F;
    17D : 00100193;
    17E : 00000073;
    17F : C0001073;
    180 : 00000000;
    181 : 00000000;
    182 : 00000000;
    183 : 00000000;
    184 : 00000000;
    185 : 00000000;
    186 : 00000000;
    187 : 00000000;
    188 : 00000000;
    189 : 00000000;
    18A : 00000000;
    18B : 00000000;
    18C : 00000000;
    18D : 00000000;
    18E : 00000000;
    18F : 00000000;
    190 : 00000000;
    191 : 00000000;
    192 : 00000000;
    193 : 00000000;
    194 : 00000000;
    195 : 00000000;
    196 : 00000000;
    197 : 00000000;
    198 : 00000000;
    199 : 00000000;
    19A : 00000000;
    19B : 00000000;
    19C : 00000000;
    19D : 00000000;
    19E : 00000000;
    19F : 00000000;
    1A0 : 00000000;
    1A1 : 00000000;
    1A2 : 00000000;
    1A3 : 00000000;
    1A4 : 00000000;
    1A5 : 00000000;
    1A6 : 00000000;
    1A7 : 00000000;
    1A8 : 00000000;
    1A9 : 00000000;
    1AA : 00000000;
    1AB : 00000000;
    1AC : 00000000;
    1AD : 00000000;
    1AE : 00000000;
    1AF : 00000000;
    1B0 : 00000000;
    1B1 : 00000000;
    1B2 : 00000000;
    1B3 : 00000000;
    1B4 : 00000000;
    1B5 : 00000000;
    1B6 : 00000000;
    1B7 : 00000000;
    1B8 : 00000000;
    1B9 : 00000000;
    1BA : 00000000;
    1BB : 00000000;
    1BC : 00000000;
    1BD : 00000000;
    1BE : 00000000;
    1BF : 00000000;
    1C0 : 00000000;
    1C1 : 00000000;
    1C2 : 00000000;
    1C3 : 00000000;
    1C4 : 00000000;
    1C5 : 00000000;
    1C6 : 00000000;
    1C7 : 00000000;
    1C8 : 00000000;
    1C9 : 00000000;
    1CA : 00000000;
    1CB : 00000000;
    1CC : 00000000;
    1CD : 00000000;
    1CE : 00000000;
    1CF : 00000000;
    1D0 : 00000000;
    1D1 : 00000000;
    1D2 : 00000000;
    1D3 : 00000000;
    1D4 : 00000000;
    1D5 : 00000000;
    1D6 : 00000000;
    1D7 : 00000000;
    1D8 : 00000000;
    1D9 : 00000000;
    1DA : 00000000;
    1DB : 00000000;
    1DC : 00000000;
    1DD : 00000000;
    1DE : 00000000;
    1DF : 00000000;
    1E0 : 00000000;
    1E1 : 00000000;
    1E2 : 00000000;
    1E3 : 00000000;
    1E4 : 00000000;
    1E5 : 00000000;
    1E6 : 00000000;
    1E7 : 00000000;
    1E8 : 00000000;
    1E9 : 00000000;
    1EA : 00000000;
    1EB : 00000000;
    1EC : 00000000;
    1ED : 00000000;
    1EE : 00000000;
    1EF : 00000000;
    1F0 : 00000000;
    1F1 : 00000000;
    1F2 : 00000000;
    1F3 : 00000000;
    1F4 : 00000000;
    1F5 : 00000000;
    1F6 : 00000000;
    1F7 : 00000000;
    1F8 : 00000000;
    1F9 : 00000000;
    1FA : 00000000;
    1FB : 00000000;
    1FC : 00000000;
    1FD : 00000000;
    1FE : 00000000;
    1FF : 00000000;
    200 : 00000000;
    201 : 00000000;
    202 : 00000000;
    203 : 00000000;
    204 : 00000000;
    205 : 00000000;
    206 : 00000000;
    207 : 00000000;
    208 : 00000000;
    209 : 00000000;
    20A : 00000000;
    20B : 00000000;
    20C : 00000000;
    20D : 00000000;
    20E : 00000000;
    20F : 00000000;
    210 : 00000000;
    211 : 00000000;
[212..3FF] : 0000000;
END;
