-- Copyright (C) 2017  Intel Corporation. All rights reserved.
-- Your use of Intel Corporation's design tools, logic functions 
-- and other software and tools, and its AMPP partner logic 
-- functions, and any output files from any of the foregoing 
-- (including device programming or simulation files), and any 
-- associated documentation or information are expressly subject 
-- to the terms and conditions of the Intel Program License 
-- Subscription Agreement, the Intel Quartus Prime License Agreement,
-- the Intel FPGA IP License Agreement, or other applicable license
-- agreement, including, without limitation, that your use is for
-- the sole purpose of programming logic devices manufactured by
-- Intel and sold by Intel or its authorized distributors.  Please
-- refer to the applicable agreement for further details.

-- Quartus Prime generated Memory Initialization File (.mif)

WIDTH=32;
DEPTH=1024;

ADDRESS_RADIX=HEX;
DATA_RADIX=HEX;

CONTENT BEGIN
    0 : 04C0006F;
    1 : 34202F73;
    2 : 00800F93;
    3 : 03FF0A63;
    4 : 00900F93;
    5 : 03FF0663;
    6 : 00B00F93;
    7 : 03FF0263;
    8 : 00000F17;
    9 : FE0F0F13;
    A : 000F0463;
    B : 000F0067;
    C : 34202F73;
    D : 000F5463;
    E : 0040006F;
    F : 5391E193;
    10 : 00000F17;
    11 : 7C3F2023;
    12 : FF9FF06F;
    13 : F1402573;
    14 : 00051063;
    15 : 00000297;
    16 : 01028293;
    17 : 30529073;
    18 : 18005073;
    19 : 00000297;
    1A : 01C28293;
    1B : 30529073;
    1C : FFF00293;
    1D : 3B029073;
    1E : 01F00293;
    1F : 3A029073;
    20 : 00000297;
    21 : 01828293;
    22 : 30529073;
    23 : 30205073;
    24 : 30305073;
    25 : 30405073;
    26 : 00000193;
    27 : 00000297;
    28 : F6828293;
    29 : 30529073;
    2A : 00100513;
    2B : 01F51513;
    2C : 00054863;
    2D : 0FF0000F;
    2E : 00100193;
    2F : 00000073;
    30 : 00000297;
    31 : F4028293;
    32 : 00028E63;
    33 : 10529073;
    34 : 0000B2B7;
    35 : 10928293;
    36 : 30229073;
    37 : 30202373;
    38 : F4629EE3;
    39 : 30005073;
    3A : 00000297;
    3B : 01428293;
    3C : 34129073;
    3D : F1402573;
    3E : 30200073;
    3F : 00200193;
    40 : 00000093;
    41 : 00100113;
    42 : 00209663;
    43 : 2A301A63;
    44 : 00301663;
    45 : FE209EE3;
    46 : 2A301463;
    47 : 00300193;
    48 : 00100093;
    49 : 00000113;
    4A : 00209663;
    4B : 28301A63;
    4C : 00301663;
    4D : FE209EE3;
    4E : 28301463;
    4F : 00400193;
    50 : FFF00093;
    51 : 00100113;
    52 : 00209663;
    53 : 26301A63;
    54 : 00301663;
    55 : FE209EE3;
    56 : 26301463;
    57 : 00500193;
    58 : 00100093;
    59 : FFF00113;
    5A : 00209663;
    5B : 24301A63;
    5C : 00301663;
    5D : FE209EE3;
    5E : 24301463;
    5F : 00600193;
    60 : 00000093;
    61 : 00000113;
    62 : 00209463;
    63 : 00301463;
    64 : 22301863;
    65 : FE209EE3;
    66 : 00700193;
    67 : 00100093;
    68 : 00100113;
    69 : 00209463;
    6A : 00301463;
    6B : 20301A63;
    6C : FE209EE3;
    6D : 00800193;
    6E : FFF00093;
    6F : FFF00113;
    70 : 00209463;
    71 : 00301463;
    72 : 1E301C63;
    73 : FE209EE3;
    74 : 00900193;
    75 : 00000213;
    76 : 00000093;
    77 : 00000113;
    78 : 1E209063;
    79 : 00120213;
    7A : 00200293;
    7B : FE5216E3;
    7C : 00A00193;
    7D : 00000213;
    7E : 00000093;
    7F : 00000113;
    80 : 00000013;
    81 : 1A209E63;
    82 : 00120213;
    83 : 00200293;
    84 : FE5214E3;
    85 : 00B00193;
    86 : 00000213;
    87 : 00000093;
    88 : 00000113;
    89 : 00000013;
    8A : 00000013;
    8B : 18209A63;
    8C : 00120213;
    8D : 00200293;
    8E : FE5212E3;
    8F : 00C00193;
    90 : 00000213;
    91 : 00000093;
    92 : 00000013;
    93 : 00000113;
    94 : 16209863;
    95 : 00120213;
    96 : 00200293;
    97 : FE5214E3;
    98 : 00D00193;
    99 : 00000213;
    9A : 00000093;
    9B : 00000013;
    9C : 00000113;
    9D : 00000013;
    9E : 14209463;
    9F : 00120213;
    A0 : 00200293;
    A1 : FE5212E3;
    A2 : 00E00193;
    A3 : 00000213;
    A4 : 00000093;
    A5 : 00000013;
    A6 : 00000013;
    A7 : 00000113;
    A8 : 12209063;
    A9 : 00120213;
    AA : 00200293;
    AB : FE5212E3;
    AC : 00F00193;
    AD : 00000213;
    AE : 00000093;
    AF : 00000113;
    B0 : 10209063;
    B1 : 00120213;
    B2 : 00200293;
    B3 : FE5216E3;
    B4 : 01000193;
    B5 : 00000213;
    B6 : 00000093;
    B7 : 00000113;
    B8 : 00000013;
    B9 : 0C209E63;
    BA : 00120213;
    BB : 00200293;
    BC : FE5214E3;
    BD : 01100193;
    BE : 00000213;
    BF : 00000093;
    C0 : 00000113;
    C1 : 00000013;
    C2 : 00000013;
    C3 : 0A209A63;
    C4 : 00120213;
    C5 : 00200293;
    C6 : FE5212E3;
    C7 : 01200193;
    C8 : 00000213;
    C9 : 00000093;
    CA : 00000013;
    CB : 00000113;
    CC : 08209863;
    CD : 00120213;
    CE : 00200293;
    CF : FE5214E3;
    D0 : 01300193;
    D1 : 00000213;
    D2 : 00000093;
    D3 : 00000013;
    D4 : 00000113;
    D5 : 00000013;
    D6 : 06209463;
    D7 : 00120213;
    D8 : 00200293;
    D9 : FE5212E3;
    DA : 01400193;
    DB : 00000213;
    DC : 00000093;
    DD : 00000013;
    DE : 00000013;
    DF : 00000113;
    E0 : 04209063;
    E1 : 00120213;
    E2 : 00200293;
    E3 : FE5212E3;
    E4 : 00100093;
    E5 : 00009A63;
    E6 : 00108093;
    E7 : 00108093;
    E8 : 00108093;
    E9 : 00108093;
    EA : 00108093;
    EB : 00108093;
    EC : 00300E93;
    ED : 01500193;
    EE : 01D09463;
    EF : 00301C63;
    F0 : 0FF0000F;
    F1 : 00018063;
    F2 : 00119193;
    F3 : 0011E193;
    F4 : 00000073;
    F5 : 0FF0000F;
    F6 : 00100193;
    F7 : 00000073;
    F8 : C0001073;
    F9 : 00000000;
    FA : 00000000;
    FB : 00000000;
    FC : 00000000;
    FD : 00000000;
    FE : 00000000;
    FF : 00000000;
    100 : 00000000;
    101 : 00000000;
    102 : 00000000;
    103 : 00000000;
    104 : 00000000;
    105 : 00000000;
    106 : 00000000;
    107 : 00000000;
    108 : 00000000;
    109 : 00000000;
    10A : 00000000;
    10B : 00000000;
    10C : 00000000;
    10D : 00000000;
    10E : 00000000;
    10F : 00000000;
    110 : 00000000;
    111 : 00000000;
    112 : 00000000;
    113 : 00000000;
    114 : 00000000;
    115 : 00000000;
    116 : 00000000;
    117 : 00000000;
    118 : 00000000;
    119 : 00000000;
    11A : 00000000;
    11B : 00000000;
    11C : 00000000;
    11D : 00000000;
    11E : 00000000;
    11F : 00000000;
    120 : 00000000;
    121 : 00000000;
    122 : 00000000;
    123 : 00000000;
    124 : 00000000;
    125 : 00000000;
    126 : 00000000;
    127 : 00000000;
    128 : 00000000;
    129 : 00000000;
    12A : 00000000;
    12B : 00000000;
    12C : 00000000;
    12D : 00000000;
    12E : 00000000;
    12F : 00000000;
    130 : 00000000;
    131 : 00000000;
    132 : 00000000;
    133 : 00000000;
    134 : 00000000;
    135 : 00000000;
    136 : 00000000;
    137 : 00000000;
    138 : 00000000;
    139 : 00000000;
    13A : 00000000;
    13B : 00000000;
    13C : 00000000;
    13D : 00000000;
    13E : 00000000;
    13F : 00000000;
    140 : 00000000;
    141 : 00000000;
    142 : 00000000;
    143 : 00000000;
    144 : 00000000;
    145 : 00000000;
    146 : 00000000;
    147 : 00000000;
    148 : 00000000;
    149 : 00000000;
    14A : 00000000;
    14B : 00000000;
    14C : 00000000;
    14D : 00000000;
    14E : 00000000;
    14F : 00000000;
    150 : 00000000;
    151 : 00000000;
    152 : 00000000;
    153 : 00000000;
    154 : 00000000;
    155 : 00000000;
    156 : 00000000;
    157 : 00000000;
    158 : 00000000;
    159 : 00000000;
    15A : 00000000;
    15B : 00000000;
    15C : 00000000;
    15D : 00000000;
    15E : 00000000;
    15F : 00000000;
    160 : 00000000;
    161 : 00000000;
    162 : 00000000;
    163 : 00000000;
    164 : 00000000;
    165 : 00000000;
    166 : 00000000;
    167 : 00000000;
    168 : 00000000;
    169 : 00000000;
    16A : 00000000;
    16B : 00000000;
    16C : 00000000;
    16D : 00000000;
    16E : 00000000;
    16F : 00000000;
    170 : 00000000;
    171 : 00000000;
    172 : 00000000;
    173 : 00000000;
    174 : 00000000;
    175 : 00000000;
    176 : 00000000;
    177 : 00000000;
    178 : 00000000;
    179 : 00000000;
    17A : 00000000;
    17B : 00000000;
    17C : 00000000;
    17D : 00000000;
    17E : 00000000;
    17F : 00000000;
    180 : 00000000;
    181 : 00000000;
    182 : 00000000;
    183 : 00000000;
    184 : 00000000;
    185 : 00000000;
    186 : 00000000;
    187 : 00000000;
    188 : 00000000;
    189 : 00000000;
    18A : 00000000;
    18B : 00000000;
    18C : 00000000;
    18D : 00000000;
    18E : 00000000;
    18F : 00000000;
    190 : 00000000;
    191 : 00000000;
    192 : 00000000;
    193 : 00000000;
    194 : 00000000;
    195 : 00000000;
    196 : 00000000;
    197 : 00000000;
    198 : 00000000;
    199 : 00000000;
    19A : 00000000;
    19B : 00000000;
    19C : 00000000;
    19D : 00000000;
    19E : 00000000;
    19F : 00000000;
    1A0 : 00000000;
    1A1 : 00000000;
    1A2 : 00000000;
    1A3 : 00000000;
    1A4 : 00000000;
    1A5 : 00000000;
    1A6 : 00000000;
    1A7 : 00000000;
    1A8 : 00000000;
    1A9 : 00000000;
    1AA : 00000000;
    1AB : 00000000;
    1AC : 00000000;
    1AD : 00000000;
    1AE : 00000000;
    1AF : 00000000;
    1B0 : 00000000;
    1B1 : 00000000;
    1B2 : 00000000;
    1B3 : 00000000;
    1B4 : 00000000;
    1B5 : 00000000;
    1B6 : 00000000;
    1B7 : 00000000;
    1B8 : 00000000;
    1B9 : 00000000;
    1BA : 00000000;
    1BB : 00000000;
    1BC : 00000000;
    1BD : 00000000;
    1BE : 00000000;
    1BF : 00000000;
    1C0 : 00000000;
    1C1 : 00000000;
    1C2 : 00000000;
    1C3 : 00000000;
    1C4 : 00000000;
    1C5 : 00000000;
    1C6 : 00000000;
    1C7 : 00000000;
    1C8 : 00000000;
    1C9 : 00000000;
    1CA : 00000000;
    1CB : 00000000;
    1CC : 00000000;
    1CD : 00000000;
    1CE : 00000000;
    1CF : 00000000;
    1D0 : 00000000;
    1D1 : 00000000;
    1D2 : 00000000;
    1D3 : 00000000;
    1D4 : 00000000;
    1D5 : 00000000;
    1D6 : 00000000;
    1D7 : 00000000;
    1D8 : 00000000;
    1D9 : 00000000;
    1DA : 00000000;
    1DB : 00000000;
    1DC : 00000000;
    1DD : 00000000;
    1DE : 00000000;
    1DF : 00000000;
    1E0 : 00000000;
    1E1 : 00000000;
    1E2 : 00000000;
    1E3 : 00000000;
    1E4 : 00000000;
    1E5 : 00000000;
    1E6 : 00000000;
    1E7 : 00000000;
    1E8 : 00000000;
    1E9 : 00000000;
    1EA : 00000000;
    1EB : 00000000;
    1EC : 00000000;
    1ED : 00000000;
    1EE : 00000000;
    1EF : 00000000;
    1F0 : 00000000;
    1F1 : 00000000;
    1F2 : 00000000;
    1F3 : 00000000;
    1F4 : 00000000;
    1F5 : 00000000;
    1F6 : 00000000;
    1F7 : 00000000;
    1F8 : 00000000;
    1F9 : 00000000;
    1FA : 00000000;
    1FB : 00000000;
    1FC : 00000000;
    1FD : 00000000;
    1FE : 00000000;
    1FF : 00000000;
    200 : 00000000;
    201 : 00000000;
    202 : 00000000;
    203 : 00000000;
    204 : 00000000;
    205 : 00000000;
    206 : 00000000;
    207 : 00000000;
    208 : 00000000;
    209 : 00000000;
    20A : 00000000;
    20B : 00000000;
    20C : 00000000;
    20D : 00000000;
    20E : 00000000;
    20F : 00000000;
    210 : 00000000;
    211 : 00000000;
[212..3FF] : 0000000;
END;
