-- Copyright (C) 2017  Intel Corporation. All rights reserved.
-- Your use of Intel Corporation's design tools, logic functions 
-- and other software and tools, and its AMPP partner logic 
-- functions, and any output files from any of the foregoing 
-- (including device programming or simulation files), and any 
-- associated documentation or information are expressly subject 
-- to the terms and conditions of the Intel Program License 
-- Subscription Agreement, the Intel Quartus Prime License Agreement,
-- the Intel FPGA IP License Agreement, or other applicable license
-- agreement, including, without limitation, that your use is for
-- the sole purpose of programming logic devices manufactured by
-- Intel and sold by Intel or its authorized distributors.  Please
-- refer to the applicable agreement for further details.

-- Quartus Prime generated Memory Initialization File (.mif)

WIDTH=32;
DEPTH=1024;

ADDRESS_RADIX=HEX;
DATA_RADIX=HEX;

CONTENT BEGIN
    0 : 04C0006F;
    1 : 34202F73;
    2 : 00800F93;
    3 : 03FF0A63;
    4 : 00900F93;
    5 : 03FF0663;
    6 : 00B00F93;
    7 : 03FF0263;
    8 : 00000F17;
    9 : FE0F0F13;
    A : 000F0463;
    B : 000F0067;
    C : 34202F73;
    D : 000F5463;
    E : 0040006F;
    F : 5391E193;
    10 : 00000F17;
    11 : 7C3F2023;
    12 : FF9FF06F;
    13 : F1402573;
    14 : 00051063;
    15 : 00000297;
    16 : 01028293;
    17 : 30529073;
    18 : 18005073;
    19 : 00000297;
    1A : 01C28293;
    1B : 30529073;
    1C : FFF00293;
    1D : 3B029073;
    1E : 01F00293;
    1F : 3A029073;
    20 : 00000297;
    21 : 01828293;
    22 : 30529073;
    23 : 30205073;
    24 : 30305073;
    25 : 30405073;
    26 : 00000193;
    27 : 00000297;
    28 : F6828293;
    29 : 30529073;
    2A : 00100513;
    2B : 01F51513;
    2C : 00054863;
    2D : 0FF0000F;
    2E : 00100193;
    2F : 00000073;
    30 : 00000297;
    31 : F4028293;
    32 : 00028E63;
    33 : 10529073;
    34 : 0000B2B7;
    35 : 10928293;
    36 : 30229073;
    37 : 30202373;
    38 : F4629EE3;
    39 : 30005073;
    3A : 00000297;
    3B : 01428293;
    3C : 34129073;
    3D : F1402573;
    3E : 30200073;
    3F : 00001097;
    40 : B0408093;
    41 : 00AA0137;
    42 : 0AA10113;
    43 : 0020A023;
    44 : 0000AF03;
    45 : 00AA0EB7;
    46 : 0AAE8E93;
    47 : 00200193;
    48 : 47DF1063;
    49 : 00001097;
    4A : ADC08093;
    4B : AA00B137;
    4C : A0010113;
    4D : 0020A223;
    4E : 0040AF03;
    4F : AA00BEB7;
    50 : A00E8E93;
    51 : 00300193;
    52 : 43DF1C63;
    53 : 00001097;
    54 : AB408093;
    55 : 0AA01137;
    56 : AA010113;
    57 : 0020A423;
    58 : 0080AF03;
    59 : 0AA01EB7;
    5A : AA0E8E93;
    5B : 00400193;
    5C : 41DF1863;
    5D : 00001097;
    5E : A8C08093;
    5F : A00AA137;
    60 : 00A10113;
    61 : 0020A623;
    62 : 00C0AF03;
    63 : A00AAEB7;
    64 : 00AE8E93;
    65 : 00500193;
    66 : 3FDF1463;
    67 : 00001097;
    68 : A8008093;
    69 : 00AA0137;
    6A : 0AA10113;
    6B : FE20AA23;
    6C : FF40AF03;
    6D : 00AA0EB7;
    6E : 0AAE8E93;
    6F : 00600193;
    70 : 3DDF1063;
    71 : 00001097;
    72 : A5808093;
    73 : AA00B137;
    74 : A0010113;
    75 : FE20AC23;
    76 : FF80AF03;
    77 : AA00BEB7;
    78 : A00E8E93;
    79 : 00700193;
    7A : 39DF1C63;
    7B : 00001097;
    7C : A3008093;
    7D : 0AA01137;
    7E : AA010113;
    7F : FE20AE23;
    80 : FFC0AF03;
    81 : 0AA01EB7;
    82 : AA0E8E93;
    83 : 00800193;
    84 : 37DF1863;
    85 : 00001097;
    86 : A0808093;
    87 : A00AA137;
    88 : 00A10113;
    89 : 0020A023;
    8A : 0000AF03;
    8B : A00AAEB7;
    8C : 00AE8E93;
    8D : 00900193;
    8E : 35DF1463;
    8F : 00001097;
    90 : 9E408093;
    91 : 12345137;
    92 : 67810113;
    93 : FE008213;
    94 : 02222023;
    95 : 0000A283;
    96 : 12345EB7;
    97 : 678E8E93;
    98 : 00A00193;
    99 : 31D29E63;
    9A : 00001097;
    9B : 9B808093;
    9C : 58213137;
    9D : 09810113;
    9E : FFD08093;
    9F : 0020A3A3;
    A0 : 00001217;
    A1 : 9A420213;
    A2 : 00022283;
    A3 : 58213EB7;
    A4 : 098E8E93;
    A5 : 00B00193;
    A6 : 2FD29463;
    A7 : 00C00193;
    A8 : 00000213;
    A9 : AABBD0B7;
    AA : CDD08093;
    AB : 00001117;
    AC : 95410113;
    AD : 00112023;
    AE : 00012F03;
    AF : AABBDEB7;
    B0 : CDDE8E93;
    B1 : 2BDF1E63;
    B2 : 00120213;
    B3 : 00200293;
    B4 : FC521AE3;
    B5 : 00D00193;
    B6 : 00000213;
    B7 : DAABC0B7;
    B8 : CCD08093;
    B9 : 00001117;
    BA : 91C10113;
    BB : 00000013;
    BC : 00112223;
    BD : 00412F03;
    BE : DAABCEB7;
    BF : CCDE8E93;
    C0 : 29DF1063;
    C1 : 00120213;
    C2 : 00200293;
    C3 : FC5218E3;
    C4 : 00E00193;
    C5 : 00000213;
    C6 : DDAAC0B7;
    C7 : BCC08093;
    C8 : 00001117;
    C9 : 8E010113;
    CA : 00000013;
    CB : 00000013;
    CC : 00112423;
    CD : 00812F03;
    CE : DDAACEB7;
    CF : BCCE8E93;
    D0 : 25DF1063;
    D1 : 00120213;
    D2 : 00200293;
    D3 : FC5216E3;
    D4 : 00F00193;
    D5 : 00000213;
    D6 : CDDAB0B7;
    D7 : BBC08093;
    D8 : 00000013;
    D9 : 00001117;
    DA : 89C10113;
    DB : 00112623;
    DC : 00C12F03;
    DD : CDDABEB7;
    DE : BBCE8E93;
    DF : 21DF1263;
    E0 : 00120213;
    E1 : 00200293;
    E2 : FC5218E3;
    E3 : 01000193;
    E4 : 00000213;
    E5 : CCDDB0B7;
    E6 : ABB08093;
    E7 : 00000013;
    E8 : 00001117;
    E9 : 86010113;
    EA : 00000013;
    EB : 00112823;
    EC : 01012F03;
    ED : CCDDBEB7;
    EE : ABBE8E93;
    EF : 1DDF1263;
    F0 : 00120213;
    F1 : 00200293;
    F2 : FC5216E3;
    F3 : 01100193;
    F4 : 00000213;
    F5 : BCCDE0B7;
    F6 : AAB08093;
    F7 : 00000013;
    F8 : 00000013;
    F9 : 00001117;
    FA : 81C10113;
    FB : 00112A23;
    FC : 01412F03;
    FD : BCCDEEB7;
    FE : AABE8E93;
    FF : 19DF1263;
    100 : 00120213;
    101 : 00200293;
    102 : FC5216E3;
    103 : 01200193;
    104 : 00000213;
    105 : 00000117;
    106 : 7EC10113;
    107 : 001120B7;
    108 : 23308093;
    109 : 00112023;
    10A : 00012F03;
    10B : 00112EB7;
    10C : 233E8E93;
    10D : 15DF1663;
    10E : 00120213;
    10F : 00200293;
    110 : FC521AE3;
    111 : 01300193;
    112 : 00000213;
    113 : 00000117;
    114 : 7B410113;
    115 : 300110B7;
    116 : 22308093;
    117 : 00000013;
    118 : 00112223;
    119 : 00412F03;
    11A : 30011EB7;
    11B : 223E8E93;
    11C : 11DF1863;
    11D : 00120213;
    11E : 00200293;
    11F : FC5218E3;
    120 : 01400193;
    121 : 00000213;
    122 : 00000117;
    123 : 77810113;
    124 : 330010B7;
    125 : 12208093;
    126 : 00000013;
    127 : 00000013;
    128 : 00112423;
    129 : 00812F03;
    12A : 33001EB7;
    12B : 122E8E93;
    12C : 0DDF1863;
    12D : 00120213;
    12E : 00200293;
    12F : FC5216E3;
    130 : 01500193;
    131 : 00000213;
    132 : 00000117;
    133 : 73810113;
    134 : 00000013;
    135 : 233000B7;
    136 : 11208093;
    137 : 00112623;
    138 : 00C12F03;
    139 : 23300EB7;
    13A : 112E8E93;
    13B : 09DF1A63;
    13C : 00120213;
    13D : 00200293;
    13E : FC5218E3;
    13F : 01600193;
    140 : 00000213;
    141 : 00000117;
    142 : 6FC10113;
    143 : 00000013;
    144 : 223300B7;
    145 : 01108093;
    146 : 00000013;
    147 : 00112823;
    148 : 01012F03;
    149 : 22330EB7;
    14A : 011E8E93;
    14B : 05DF1A63;
    14C : 00120213;
    14D : 00200293;
    14E : FC5216E3;
    14F : 01700193;
    150 : 00000213;
    151 : 00000117;
    152 : 6BC10113;
    153 : 00000013;
    154 : 00000013;
    155 : 122330B7;
    156 : 00108093;
    157 : 00112A23;
    158 : 01412F03;
    159 : 12233EB7;
    15A : 001E8E93;
    15B : 01DF1A63;
    15C : 00120213;
    15D : 00200293;
    15E : FC5216E3;
    15F : 00301C63;
    160 : 0FF0000F;
    161 : 00018063;
    162 : 00119193;
    163 : 0011E193;
    164 : 00000073;
    165 : 0FF0000F;
    166 : 00100193;
    167 : 00000073;
    168 : C0001073;
    169 : 00000000;
    16A : 00000000;
    16B : 00000000;
    16C : 00000000;
    16D : 00000000;
    16E : 00000000;
    16F : 00000000;
    170 : 00000000;
    171 : 00000000;
    172 : 00000000;
    173 : 00000000;
    174 : 00000000;
    175 : 00000000;
    176 : 00000000;
    177 : 00000000;
    178 : 00000000;
    179 : 00000000;
    17A : 00000000;
    17B : 00000000;
    17C : 00000000;
    17D : 00000000;
    17E : 00000000;
    17F : 00000000;
    180 : 00000000;
    181 : 00000000;
    182 : 00000000;
    183 : 00000000;
    184 : 00000000;
    185 : 00000000;
    186 : 00000000;
    187 : 00000000;
    188 : 00000000;
    189 : 00000000;
    18A : 00000000;
    18B : 00000000;
    18C : 00000000;
    18D : 00000000;
    18E : 00000000;
    18F : 00000000;
    190 : 00000000;
    191 : 00000000;
    192 : 00000000;
    193 : 00000000;
    194 : 00000000;
    195 : 00000000;
    196 : 00000000;
    197 : 00000000;
    198 : 00000000;
    199 : 00000000;
    19A : 00000000;
    19B : 00000000;
    19C : 00000000;
    19D : 00000000;
    19E : 00000000;
    19F : 00000000;
    1A0 : 00000000;
    1A1 : 00000000;
    1A2 : 00000000;
    1A3 : 00000000;
    1A4 : 00000000;
    1A5 : 00000000;
    1A6 : 00000000;
    1A7 : 00000000;
    1A8 : 00000000;
    1A9 : 00000000;
    1AA : 00000000;
    1AB : 00000000;
    1AC : 00000000;
    1AD : 00000000;
    1AE : 00000000;
    1AF : 00000000;
    1B0 : 00000000;
    1B1 : 00000000;
    1B2 : 00000000;
    1B3 : 00000000;
    1B4 : 00000000;
    1B5 : 00000000;
    1B6 : 00000000;
    1B7 : 00000000;
    1B8 : 00000000;
    1B9 : 00000000;
    1BA : 00000000;
    1BB : 00000000;
    1BC : 00000000;
    1BD : 00000000;
    1BE : 00000000;
    1BF : 00000000;
    1C0 : 00000000;
    1C1 : 00000000;
    1C2 : 00000000;
    1C3 : 00000000;
    1C4 : 00000000;
    1C5 : 00000000;
    1C6 : 00000000;
    1C7 : 00000000;
    1C8 : 00000000;
    1C9 : 00000000;
    1CA : 00000000;
    1CB : 00000000;
    1CC : 00000000;
    1CD : 00000000;
    1CE : 00000000;
    1CF : 00000000;
    1D0 : 00000000;
    1D1 : 00000000;
    1D2 : 00000000;
    1D3 : 00000000;
    1D4 : 00000000;
    1D5 : 00000000;
    1D6 : 00000000;
    1D7 : 00000000;
    1D8 : 00000000;
    1D9 : 00000000;
    1DA : 00000000;
    1DB : 00000000;
    1DC : 00000000;
    1DD : 00000000;
    1DE : 00000000;
    1DF : 00000000;
    1E0 : 00000000;
    1E1 : 00000000;
    1E2 : 00000000;
    1E3 : 00000000;
    1E4 : 00000000;
    1E5 : 00000000;
    1E6 : 00000000;
    1E7 : 00000000;
    1E8 : 00000000;
    1E9 : 00000000;
    1EA : 00000000;
    1EB : 00000000;
    1EC : 00000000;
    1ED : 00000000;
    1EE : 00000000;
    1EF : 00000000;
    1F0 : 00000000;
    1F1 : 00000000;
    1F2 : 00000000;
    1F3 : 00000000;
    1F4 : 00000000;
    1F5 : 00000000;
    1F6 : 00000000;
    1F7 : 00000000;
    1F8 : 00000000;
    1F9 : 00000000;
    1FA : 00000000;
    1FB : 00000000;
    1FC : 00000000;
    1FD : 00000000;
    1FE : 00000000;
    1FF : 00000000;
    200 : 00000000;
    201 : 00000000;
    202 : 00000000;
    203 : 00000000;
    204 : 00000000;
    205 : 00000000;
    206 : 00000000;
    207 : 00000000;
    208 : 00000000;
    209 : 00000000;
    20A : 00000000;
    20B : 00000000;
    20C : 00000000;
    20D : 00000000;
    20E : 00000000;
    20F : 00000000;
    210 : 00000000;
    211 : 00000000;
    212 : 00000000;
    213 : 00000000;
    214 : 00000000;
    215 : 00000000;
    216 : 00000000;
    217 : 00000000;
    218 : 00000000;
    219 : 00000000;
    21A : 00000000;
    21B : 00000000;
    21C : 00000000;
    21D : 00000000;
    21E : 00000000;
    21F : 00000000;
    220 : 00000000;
    221 : 00000000;
    222 : 00000000;
    223 : 00000000;
    224 : 00000000;
    225 : 00000000;
    226 : 00000000;
    227 : 00000000;
    228 : 00000000;
    229 : 00000000;
    22A : 00000000;
    22B : 00000000;
    22C : 00000000;
    22D : 00000000;
    22E : 00000000;
    22F : 00000000;
    230 : 00000000;
    231 : 00000000;
    232 : 00000000;
    233 : 00000000;
    234 : 00000000;
    235 : 00000000;
    236 : 00000000;
    237 : 00000000;
    238 : 00000000;
    239 : 00000000;
    23A : 00000000;
    23B : 00000000;
    23C : 00000000;
    23D : 00000000;
    23E : 00000000;
    23F : 00000000;
    240 : 00000000;
    241 : 00000000;
    242 : 00000000;
    243 : 00000000;
    244 : 00000000;
    245 : 00000000;
    246 : 00000000;
    247 : 00000000;
    248 : 00000000;
    249 : 00000000;
    24A : 00000000;
    24B : 00000000;
    24C : 00000000;
    24D : 00000000;
    24E : 00000000;
    24F : 00000000;
    250 : 00000000;
    251 : 00000000;
    252 : 00000000;
    253 : 00000000;
    254 : 00000000;
    255 : 00000000;
    256 : 00000000;
    257 : 00000000;
    258 : 00000000;
    259 : 00000000;
    25A : 00000000;
    25B : 00000000;
    25C : 00000000;
    25D : 00000000;
    25E : 00000000;
    25F : 00000000;
    260 : 00000000;
    261 : 00000000;
    262 : 00000000;
    263 : 00000000;
    264 : 00000000;
    265 : 00000000;
    266 : 00000000;
    267 : 00000000;
    268 : 00000000;
    269 : 00000000;
    26A : 00000000;
    26B : 00000000;
    26C : 00000000;
    26D : 00000000;
    26E : 00000000;
    26F : 00000000;
    270 : 00000000;
    271 : 00000000;
    272 : 00000000;
    273 : 00000000;
    274 : 00000000;
    275 : 00000000;
    276 : 00000000;
    277 : 00000000;
    278 : 00000000;
    279 : 00000000;
    27A : 00000000;
    27B : 00000000;
    27C : 00000000;
    27D : 00000000;
    27E : 00000000;
    27F : 00000000;
    280 : 00000000;
    281 : 00000000;
    282 : 00000000;
    283 : 00000000;
    284 : 00000000;
    285 : 00000000;
    286 : 00000000;
    287 : 00000000;
    288 : 00000000;
    289 : 00000000;
    28A : 00000000;
    28B : 00000000;
    28C : 00000000;
    28D : 00000000;
    28E : 00000000;
    28F : 00000000;
    290 : 00000000;
    291 : 00000000;
    292 : 00000000;
    293 : 00000000;
    294 : 00000000;
    295 : 00000000;
    296 : 00000000;
    297 : 00000000;
    298 : 00000000;
    299 : 00000000;
    29A : 00000000;
    29B : 00000000;
    29C : 00000000;
    29D : 00000000;
    29E : 00000000;
    29F : 00000000;
    2A0 : 00000000;
    2A1 : 00000000;
    2A2 : 00000000;
    2A3 : 00000000;
    2A4 : 00000000;
    2A5 : 00000000;
    2A6 : 00000000;
    2A7 : 00000000;
    2A8 : 00000000;
    2A9 : 00000000;
    2AA : 00000000;
    2AB : 00000000;
    2AC : 00000000;
    2AD : 00000000;
    2AE : 00000000;
    2AF : 00000000;
    2B0 : 00000000;
    2B1 : 00000000;
    2B2 : 00000000;
    2B3 : 00000000;
    2B4 : 00000000;
    2B5 : 00000000;
    2B6 : 00000000;
    2B7 : 00000000;
    2B8 : 00000000;
    2B9 : 00000000;
    2BA : 00000000;
    2BB : 00000000;
    2BC : 00000000;
    2BD : 00000000;
    2BE : 00000000;
    2BF : 00000000;
    2C0 : 00000000;
    2C1 : 00000000;
    2C2 : 00000000;
    2C3 : 00000000;
    2C4 : 00000000;
    2C5 : 00000000;
    2C6 : 00000000;
    2C7 : 00000000;
    2C8 : 00000000;
    2C9 : 00000000;
    2CA : 00000000;
    2CB : 00000000;
    2CC : 00000000;
    2CD : 00000000;
    2CE : 00000000;
    2CF : 00000000;
    2D0 : 00000000;
    2D1 : 00000000;
    2D2 : 00000000;
    2D3 : 00000000;
    2D4 : 00000000;
    2D5 : 00000000;
    2D6 : 00000000;
    2D7 : 00000000;
    2D8 : 00000000;
    2D9 : 00000000;
    2DA : 00000000;
    2DB : 00000000;
    2DC : 00000000;
    2DD : 00000000;
    2DE : 00000000;
    2DF : 00000000;
    2E0 : 00000000;
    2E1 : 00000000;
    2E2 : 00000000;
    2E3 : 00000000;
    2E4 : 00000000;
    2E5 : 00000000;
    2E6 : 00000000;
    2E7 : 00000000;
    2E8 : 00000000;
    2E9 : 00000000;
    2EA : 00000000;
    2EB : 00000000;
    2EC : 00000000;
    2ED : 00000000;
    2EE : 00000000;
    2EF : 00000000;
    2F0 : 00000000;
    2F1 : 00000000;
    2F2 : 00000000;
    2F3 : 00000000;
    2F4 : 00000000;
    2F5 : 00000000;
    2F6 : 00000000;
    2F7 : 00000000;
    2F8 : 00000000;
    2F9 : 00000000;
    2FA : 00000000;
    2FB : 00000000;
    2FC : 00000000;
    2FD : 00000000;
    2FE : 00000000;
    2FF : 00000000;
    300 : DEADBEEF;
    301 : DEADBEEF;
    302 : DEADBEEF;
    303 : DEADBEEF;
    304 : DEADBEEF;
    305 : DEADBEEF;
    306 : DEADBEEF;
    307 : DEADBEEF;
    308 : DEADBEEF;
    309 : DEADBEEF;
    30A : 00000000;
    30B : 00000000;
[30C..3FF] : 0000000;
END;
