-- Copyright (C) 2017  Intel Corporation. All rights reserved.
-- Your use of Intel Corporation's design tools, logic functions 
-- and other software and tools, and its AMPP partner logic 
-- functions, and any output files from any of the foregoing 
-- (including device programming or simulation files), and any 
-- associated documentation or information are expressly subject 
-- to the terms and conditions of the Intel Program License 
-- Subscription Agreement, the Intel Quartus Prime License Agreement,
-- the Intel FPGA IP License Agreement, or other applicable license
-- agreement, including, without limitation, that your use is for
-- the sole purpose of programming logic devices manufactured by
-- Intel and sold by Intel or its authorized distributors.  Please
-- refer to the applicable agreement for further details.

-- Quartus Prime generated Memory Initialization File (.mif)

WIDTH=32;
DEPTH=1024;

ADDRESS_RADIX=HEX;
DATA_RADIX=HEX;

CONTENT BEGIN
    0 : 04C0006F;
    1 : 34202F73;
    2 : 00800F93;
    3 : 03FF0A63;
    4 : 00900F93;
    5 : 03FF0663;
    6 : 00B00F93;
    7 : 03FF0263;
    8 : 00000F17;
    9 : FE0F0F13;
    A : 000F0463;
    B : 000F0067;
    C : 34202F73;
    D : 000F5463;
    E : 0040006F;
    F : 5391E193;
    10 : 00000F17;
    11 : 7C3F2023;
    12 : FF9FF06F;
    13 : F1402573;
    14 : 00051063;
    15 : 00000297;
    16 : 01028293;
    17 : 30529073;
    18 : 18005073;
    19 : 00000297;
    1A : 01C28293;
    1B : 30529073;
    1C : FFF00293;
    1D : 3B029073;
    1E : 01F00293;
    1F : 3A029073;
    20 : 00000297;
    21 : 01828293;
    22 : 30529073;
    23 : 30205073;
    24 : 30305073;
    25 : 30405073;
    26 : 00000193;
    27 : 00000297;
    28 : F6828293;
    29 : 30529073;
    2A : 00100513;
    2B : 01F51513;
    2C : 00054863;
    2D : 0FF0000F;
    2E : 00100193;
    2F : 00000073;
    30 : 00000297;
    31 : F4028293;
    32 : 00028E63;
    33 : 10529073;
    34 : 0000B2B7;
    35 : 10928293;
    36 : 30229073;
    37 : 30202373;
    38 : F4629EE3;
    39 : 30005073;
    3A : 00000297;
    3B : 01428293;
    3C : 34129073;
    3D : F1402573;
    3E : 30200073;
    3F : FF0100B7;
    40 : F0008093;
    41 : 0F0F1137;
    42 : F0F10113;
    43 : 0020CF33;
    44 : F00FFEB7;
    45 : 00FE8E93;
    46 : 00200193;
    47 : 4BDF1063;
    48 : 0FF010B7;
    49 : FF008093;
    4A : F0F0F137;
    4B : 0F010113;
    4C : 0020CF33;
    4D : FF010EB7;
    4E : F00E8E93;
    4F : 00300193;
    50 : 47DF1E63;
    51 : 00FF00B7;
    52 : 0FF08093;
    53 : 0F0F1137;
    54 : F0F10113;
    55 : 0020CF33;
    56 : 0FF01EB7;
    57 : FF0E8E93;
    58 : 00400193;
    59 : 45DF1C63;
    5A : F00FF0B7;
    5B : 00F08093;
    5C : F0F0F137;
    5D : 0F010113;
    5E : 0020CF33;
    5F : 00FF0EB7;
    60 : 0FFE8E93;
    61 : 00500193;
    62 : 43DF1A63;
    63 : FF0100B7;
    64 : F0008093;
    65 : 0F0F1137;
    66 : F0F10113;
    67 : 0020C0B3;
    68 : F00FFEB7;
    69 : 00FE8E93;
    6A : 00600193;
    6B : 41D09863;
    6C : FF0100B7;
    6D : F0008093;
    6E : 0F0F1137;
    6F : F0F10113;
    70 : 0020C133;
    71 : F00FFEB7;
    72 : 00FE8E93;
    73 : 00700193;
    74 : 3FD11663;
    75 : FF0100B7;
    76 : F0008093;
    77 : 0010C0B3;
    78 : 00000E93;
    79 : 00800193;
    7A : 3DD09A63;
    7B : 00000213;
    7C : FF0100B7;
    7D : F0008093;
    7E : 0F0F1137;
    7F : F0F10113;
    80 : 0020CF33;
    81 : 000F0313;
    82 : 00120213;
    83 : 00200293;
    84 : FE5210E3;
    85 : F00FFEB7;
    86 : 00FE8E93;
    87 : 00900193;
    88 : 39D31E63;
    89 : 00000213;
    8A : 0FF010B7;
    8B : FF008093;
    8C : F0F0F137;
    8D : 0F010113;
    8E : 0020CF33;
    8F : 00000013;
    90 : 000F0313;
    91 : 00120213;
    92 : 00200293;
    93 : FC521EE3;
    94 : FF010EB7;
    95 : F00E8E93;
    96 : 00A00193;
    97 : 37D31063;
    98 : 00000213;
    99 : 00FF00B7;
    9A : 0FF08093;
    9B : 0F0F1137;
    9C : F0F10113;
    9D : 0020CF33;
    9E : 00000013;
    9F : 00000013;
    A0 : 000F0313;
    A1 : 00120213;
    A2 : 00200293;
    A3 : FC521CE3;
    A4 : 0FF01EB7;
    A5 : FF0E8E93;
    A6 : 00B00193;
    A7 : 33D31063;
    A8 : 00000213;
    A9 : FF0100B7;
    AA : F0008093;
    AB : 0F0F1137;
    AC : F0F10113;
    AD : 0020CF33;
    AE : 00120213;
    AF : 00200293;
    B0 : FE5212E3;
    B1 : F00FFEB7;
    B2 : 00FE8E93;
    B3 : 00C00193;
    B4 : 2FDF1663;
    B5 : 00000213;
    B6 : 0FF010B7;
    B7 : FF008093;
    B8 : F0F0F137;
    B9 : 0F010113;
    BA : 00000013;
    BB : 0020CF33;
    BC : 00120213;
    BD : 00200293;
    BE : FE5210E3;
    BF : FF010EB7;
    C0 : F00E8E93;
    C1 : 00D00193;
    C2 : 2BDF1A63;
    C3 : 00000213;
    C4 : 00FF00B7;
    C5 : 0FF08093;
    C6 : 0F0F1137;
    C7 : F0F10113;
    C8 : 00000013;
    C9 : 00000013;
    CA : 0020CF33;
    CB : 00120213;
    CC : 00200293;
    CD : FC521EE3;
    CE : 0FF01EB7;
    CF : FF0E8E93;
    D0 : 00E00193;
    D1 : 27DF1C63;
    D2 : 00000213;
    D3 : FF0100B7;
    D4 : F0008093;
    D5 : 00000013;
    D6 : 0F0F1137;
    D7 : F0F10113;
    D8 : 0020CF33;
    D9 : 00120213;
    DA : 00200293;
    DB : FE5210E3;
    DC : F00FFEB7;
    DD : 00FE8E93;
    DE : 00F00193;
    DF : 25DF1063;
    E0 : 00000213;
    E1 : 0FF010B7;
    E2 : FF008093;
    E3 : 00000013;
    E4 : F0F0F137;
    E5 : 0F010113;
    E6 : 00000013;
    E7 : 0020CF33;
    E8 : 00120213;
    E9 : 00200293;
    EA : FC521EE3;
    EB : FF010EB7;
    EC : F00E8E93;
    ED : 01000193;
    EE : 21DF1263;
    EF : 00000213;
    F0 : 00FF00B7;
    F1 : 0FF08093;
    F2 : 00000013;
    F3 : 00000013;
    F4 : 0F0F1137;
    F5 : F0F10113;
    F6 : 0020CF33;
    F7 : 00120213;
    F8 : 00200293;
    F9 : FC521EE3;
    FA : 0FF01EB7;
    FB : FF0E8E93;
    FC : 01100193;
    FD : 1DDF1463;
    FE : 00000213;
    FF : 0F0F1137;
    100 : F0F10113;
    101 : FF0100B7;
    102 : F0008093;
    103 : 0020CF33;
    104 : 00120213;
    105 : 00200293;
    106 : FE5212E3;
    107 : F00FFEB7;
    108 : 00FE8E93;
    109 : 01200193;
    10A : 19DF1A63;
    10B : 00000213;
    10C : F0F0F137;
    10D : 0F010113;
    10E : 0FF010B7;
    10F : FF008093;
    110 : 00000013;
    111 : 0020CF33;
    112 : 00120213;
    113 : 00200293;
    114 : FE5210E3;
    115 : FF010EB7;
    116 : F00E8E93;
    117 : 01300193;
    118 : 15DF1E63;
    119 : 00000213;
    11A : 0F0F1137;
    11B : F0F10113;
    11C : 00FF00B7;
    11D : 0FF08093;
    11E : 00000013;
    11F : 00000013;
    120 : 0020CF33;
    121 : 00120213;
    122 : 00200293;
    123 : FC521EE3;
    124 : 0FF01EB7;
    125 : FF0E8E93;
    126 : 01400193;
    127 : 13DF1063;
    128 : 00000213;
    129 : 0F0F1137;
    12A : F0F10113;
    12B : 00000013;
    12C : FF0100B7;
    12D : F0008093;
    12E : 0020CF33;
    12F : 00120213;
    130 : 00200293;
    131 : FE5210E3;
    132 : F00FFEB7;
    133 : 00FE8E93;
    134 : 01500193;
    135 : 0FDF1463;
    136 : 00000213;
    137 : F0F0F137;
    138 : 0F010113;
    139 : 00000013;
    13A : 0FF010B7;
    13B : FF008093;
    13C : 00000013;
    13D : 0020CF33;
    13E : 00120213;
    13F : 00200293;
    140 : FC521EE3;
    141 : FF010EB7;
    142 : F00E8E93;
    143 : 01600193;
    144 : 0BDF1663;
    145 : 00000213;
    146 : 0F0F1137;
    147 : F0F10113;
    148 : 00000013;
    149 : 00000013;
    14A : 00FF00B7;
    14B : 0FF08093;
    14C : 0020CF33;
    14D : 00120213;
    14E : 00200293;
    14F : FC521EE3;
    150 : 0FF01EB7;
    151 : FF0E8E93;
    152 : 01700193;
    153 : 07DF1863;
    154 : FF0100B7;
    155 : F0008093;
    156 : 00104133;
    157 : FF010EB7;
    158 : F00E8E93;
    159 : 01800193;
    15A : 05D11A63;
    15B : 00FF00B7;
    15C : 0FF08093;
    15D : 0000C133;
    15E : 00FF0EB7;
    15F : 0FFE8E93;
    160 : 01900193;
    161 : 03D11C63;
    162 : 000040B3;
    163 : 00000E93;
    164 : 01A00193;
    165 : 03D09463;
    166 : 111110B7;
    167 : 11108093;
    168 : 22222137;
    169 : 22210113;
    16A : 0020C033;
    16B : 00000E93;
    16C : 01B00193;
    16D : 01D01463;
    16E : 00301C63;
    16F : 0FF0000F;
    170 : 00018063;
    171 : 00119193;
    172 : 0011E193;
    173 : 00000073;
    174 : 0FF0000F;
    175 : 00100193;
    176 : 00000073;
    177 : C0001073;
    178 : 00000000;
    179 : 00000000;
    17A : 00000000;
    17B : 00000000;
    17C : 00000000;
    17D : 00000000;
    17E : 00000000;
    17F : 00000000;
    180 : 00000000;
    181 : 00000000;
    182 : 00000000;
    183 : 00000000;
    184 : 00000000;
    185 : 00000000;
    186 : 00000000;
    187 : 00000000;
    188 : 00000000;
    189 : 00000000;
    18A : 00000000;
    18B : 00000000;
    18C : 00000000;
    18D : 00000000;
    18E : 00000000;
    18F : 00000000;
    190 : 00000000;
    191 : 00000000;
    192 : 00000000;
    193 : 00000000;
    194 : 00000000;
    195 : 00000000;
    196 : 00000000;
    197 : 00000000;
    198 : 00000000;
    199 : 00000000;
    19A : 00000000;
    19B : 00000000;
    19C : 00000000;
    19D : 00000000;
    19E : 00000000;
    19F : 00000000;
    1A0 : 00000000;
    1A1 : 00000000;
    1A2 : 00000000;
    1A3 : 00000000;
    1A4 : 00000000;
    1A5 : 00000000;
    1A6 : 00000000;
    1A7 : 00000000;
    1A8 : 00000000;
    1A9 : 00000000;
    1AA : 00000000;
    1AB : 00000000;
    1AC : 00000000;
    1AD : 00000000;
    1AE : 00000000;
    1AF : 00000000;
    1B0 : 00000000;
    1B1 : 00000000;
    1B2 : 00000000;
    1B3 : 00000000;
    1B4 : 00000000;
    1B5 : 00000000;
    1B6 : 00000000;
    1B7 : 00000000;
    1B8 : 00000000;
    1B9 : 00000000;
    1BA : 00000000;
    1BB : 00000000;
    1BC : 00000000;
    1BD : 00000000;
    1BE : 00000000;
    1BF : 00000000;
    1C0 : 00000000;
    1C1 : 00000000;
    1C2 : 00000000;
    1C3 : 00000000;
    1C4 : 00000000;
    1C5 : 00000000;
    1C6 : 00000000;
    1C7 : 00000000;
    1C8 : 00000000;
    1C9 : 00000000;
    1CA : 00000000;
    1CB : 00000000;
    1CC : 00000000;
    1CD : 00000000;
    1CE : 00000000;
    1CF : 00000000;
    1D0 : 00000000;
    1D1 : 00000000;
    1D2 : 00000000;
    1D3 : 00000000;
    1D4 : 00000000;
    1D5 : 00000000;
    1D6 : 00000000;
    1D7 : 00000000;
    1D8 : 00000000;
    1D9 : 00000000;
    1DA : 00000000;
    1DB : 00000000;
    1DC : 00000000;
    1DD : 00000000;
    1DE : 00000000;
    1DF : 00000000;
    1E0 : 00000000;
    1E1 : 00000000;
    1E2 : 00000000;
    1E3 : 00000000;
    1E4 : 00000000;
    1E5 : 00000000;
    1E6 : 00000000;
    1E7 : 00000000;
    1E8 : 00000000;
    1E9 : 00000000;
    1EA : 00000000;
    1EB : 00000000;
    1EC : 00000000;
    1ED : 00000000;
    1EE : 00000000;
    1EF : 00000000;
    1F0 : 00000000;
    1F1 : 00000000;
    1F2 : 00000000;
    1F3 : 00000000;
    1F4 : 00000000;
    1F5 : 00000000;
    1F6 : 00000000;
    1F7 : 00000000;
    1F8 : 00000000;
    1F9 : 00000000;
    1FA : 00000000;
    1FB : 00000000;
    1FC : 00000000;
    1FD : 00000000;
    1FE : 00000000;
    1FF : 00000000;
    200 : 00000000;
    201 : 00000000;
    202 : 00000000;
    203 : 00000000;
    204 : 00000000;
    205 : 00000000;
    206 : 00000000;
    207 : 00000000;
    208 : 00000000;
    209 : 00000000;
    20A : 00000000;
    20B : 00000000;
    20C : 00000000;
    20D : 00000000;
    20E : 00000000;
    20F : 00000000;
    210 : 00000000;
    211 : 00000000;
[212..3FF] : 0000000;
END;
