-- Copyright (C) 2017  Intel Corporation. All rights reserved.
-- Your use of Intel Corporation's design tools, logic functions 
-- and other software and tools, and its AMPP partner logic 
-- functions, and any output files from any of the foregoing 
-- (including device programming or simulation files), and any 
-- associated documentation or information are expressly subject 
-- to the terms and conditions of the Intel Program License 
-- Subscription Agreement, the Intel Quartus Prime License Agreement,
-- the Intel FPGA IP License Agreement, or other applicable license
-- agreement, including, without limitation, that your use is for
-- the sole purpose of programming logic devices manufactured by
-- Intel and sold by Intel or its authorized distributors.  Please
-- refer to the applicable agreement for further details.

-- Quartus Prime generated Memory Initialization File (.mif)

WIDTH=32;
DEPTH=1024;

ADDRESS_RADIX=HEX;
DATA_RADIX=HEX;

CONTENT BEGIN
    0 : 04C0006F;
    1 : 34202F73;
    2 : 00800F93;
    3 : 03FF0A63;
    4 : 00900F93;
    5 : 03FF0663;
    6 : 00B00F93;
    7 : 03FF0263;
    8 : 00000F17;
    9 : FE0F0F13;
    A : 000F0463;
    B : 000F0067;
    C : 34202F73;
    D : 000F5463;
    E : 0040006F;
    F : 5391E193;
    10 : 00000F17;
    11 : 7C3F2023;
    12 : FF9FF06F;
    13 : F1402573;
    14 : 00051063;
    15 : 00000297;
    16 : 01028293;
    17 : 30529073;
    18 : 18005073;
    19 : 00000297;
    1A : 01C28293;
    1B : 30529073;
    1C : FFF00293;
    1D : 3B029073;
    1E : 01F00293;
    1F : 3A029073;
    20 : 00000297;
    21 : 01828293;
    22 : 30529073;
    23 : 30205073;
    24 : 30305073;
    25 : 30405073;
    26 : 00000193;
    27 : 00000297;
    28 : F6828293;
    29 : 30529073;
    2A : 00100513;
    2B : 01F51513;
    2C : 00054863;
    2D : 0FF0000F;
    2E : 00100193;
    2F : 00000073;
    30 : 00000297;
    31 : F4028293;
    32 : 00028E63;
    33 : 10529073;
    34 : 0000B2B7;
    35 : 10928293;
    36 : 30229073;
    37 : 30202373;
    38 : F4629EE3;
    39 : 30005073;
    3A : 00000297;
    3B : 01428293;
    3C : 34129073;
    3D : F1402573;
    3E : 30200073;
    3F : 00000093;
    40 : 00000113;
    41 : 0020AF33;
    42 : 00000E93;
    43 : 00200193;
    44 : 4BDF1A63;
    45 : 00100093;
    46 : 00100113;
    47 : 0020AF33;
    48 : 00000E93;
    49 : 00300193;
    4A : 49DF1E63;
    4B : 00300093;
    4C : 00700113;
    4D : 0020AF33;
    4E : 00100E93;
    4F : 00400193;
    50 : 49DF1263;
    51 : 00700093;
    52 : 00300113;
    53 : 0020AF33;
    54 : 00000E93;
    55 : 00500193;
    56 : 47DF1663;
    57 : 00000093;
    58 : FFFF8137;
    59 : 0020AF33;
    5A : 00000E93;
    5B : 00600193;
    5C : 45DF1A63;
    5D : 800000B7;
    5E : 00000113;
    5F : 0020AF33;
    60 : 00100E93;
    61 : 00700193;
    62 : 43DF1E63;
    63 : 800000B7;
    64 : FFFF8137;
    65 : 0020AF33;
    66 : 00100E93;
    67 : 00800193;
    68 : 43DF1263;
    69 : 00000093;
    6A : 00008137;
    6B : FFF10113;
    6C : 0020AF33;
    6D : 00100E93;
    6E : 00900193;
    6F : 41DF1463;
    70 : 800000B7;
    71 : FFF08093;
    72 : 00000113;
    73 : 0020AF33;
    74 : 00000E93;
    75 : 00A00193;
    76 : 3FDF1663;
    77 : 800000B7;
    78 : FFF08093;
    79 : 00008137;
    7A : FFF10113;
    7B : 0020AF33;
    7C : 00000E93;
    7D : 00B00193;
    7E : 3DDF1663;
    7F : 800000B7;
    80 : 00008137;
    81 : FFF10113;
    82 : 0020AF33;
    83 : 00100E93;
    84 : 00C00193;
    85 : 3BDF1863;
    86 : 800000B7;
    87 : FFF08093;
    88 : FFFF8137;
    89 : 0020AF33;
    8A : 00000E93;
    8B : 00D00193;
    8C : 39DF1A63;
    8D : 00000093;
    8E : FFF00113;
    8F : 0020AF33;
    90 : 00000E93;
    91 : 00E00193;
    92 : 37DF1E63;
    93 : FFF00093;
    94 : 00100113;
    95 : 0020AF33;
    96 : 00100E93;
    97 : 00F00193;
    98 : 37DF1263;
    99 : FFF00093;
    9A : FFF00113;
    9B : 0020AF33;
    9C : 00000E93;
    9D : 01000193;
    9E : 35DF1663;
    9F : 00E00093;
    A0 : 00D00113;
    A1 : 0020A0B3;
    A2 : 00000E93;
    A3 : 01100193;
    A4 : 33D09A63;
    A5 : 00B00093;
    A6 : 00D00113;
    A7 : 0020A133;
    A8 : 00100E93;
    A9 : 01200193;
    AA : 31D11E63;
    AB : 00D00093;
    AC : 0010A0B3;
    AD : 00000E93;
    AE : 01300193;
    AF : 31D09463;
    B0 : 00000213;
    B1 : 00B00093;
    B2 : 00D00113;
    B3 : 0020AF33;
    B4 : 000F0313;
    B5 : 00120213;
    B6 : 00200293;
    B7 : FE5214E3;
    B8 : 00100E93;
    B9 : 01400193;
    BA : 2DD31E63;
    BB : 00000213;
    BC : 00E00093;
    BD : 00D00113;
    BE : 0020AF33;
    BF : 00000013;
    C0 : 000F0313;
    C1 : 00120213;
    C2 : 00200293;
    C3 : FE5212E3;
    C4 : 00000E93;
    C5 : 01500193;
    C6 : 2BD31663;
    C7 : 00000213;
    C8 : 00C00093;
    C9 : 00D00113;
    CA : 0020AF33;
    CB : 00000013;
    CC : 00000013;
    CD : 000F0313;
    CE : 00120213;
    CF : 00200293;
    D0 : FE5210E3;
    D1 : 00100E93;
    D2 : 01600193;
    D3 : 27D31C63;
    D4 : 00000213;
    D5 : 00E00093;
    D6 : 00D00113;
    D7 : 0020AF33;
    D8 : 00120213;
    D9 : 00200293;
    DA : FE5216E3;
    DB : 00000E93;
    DC : 01700193;
    DD : 25DF1863;
    DE : 00000213;
    DF : 00B00093;
    E0 : 00D00113;
    E1 : 00000013;
    E2 : 0020AF33;
    E3 : 00120213;
    E4 : 00200293;
    E5 : FE5214E3;
    E6 : 00100E93;
    E7 : 01800193;
    E8 : 23DF1263;
    E9 : 00000213;
    EA : 00F00093;
    EB : 00D00113;
    EC : 00000013;
    ED : 00000013;
    EE : 0020AF33;
    EF : 00120213;
    F0 : 00200293;
    F1 : FE5212E3;
    F2 : 00000E93;
    F3 : 01900193;
    F4 : 1FDF1A63;
    F5 : 00000213;
    F6 : 00A00093;
    F7 : 00000013;
    F8 : 00D00113;
    F9 : 0020AF33;
    FA : 00120213;
    FB : 00200293;
    FC : FE5214E3;
    FD : 00100E93;
    FE : 01A00193;
    FF : 1DDF1463;
    100 : 00000213;
    101 : 01000093;
    102 : 00000013;
    103 : 00D00113;
    104 : 00000013;
    105 : 0020AF33;
    106 : 00120213;
    107 : 00200293;
    108 : FE5212E3;
    109 : 00000E93;
    10A : 01B00193;
    10B : 19DF1C63;
    10C : 00000213;
    10D : 00900093;
    10E : 00000013;
    10F : 00000013;
    110 : 00D00113;
    111 : 0020AF33;
    112 : 00120213;
    113 : 00200293;
    114 : FE5212E3;
    115 : 00100E93;
    116 : 01C00193;
    117 : 17DF1463;
    118 : 00000213;
    119 : 00D00113;
    11A : 01100093;
    11B : 0020AF33;
    11C : 00120213;
    11D : 00200293;
    11E : FE5216E3;
    11F : 00000E93;
    120 : 01D00193;
    121 : 15DF1063;
    122 : 00000213;
    123 : 00D00113;
    124 : 00800093;
    125 : 00000013;
    126 : 0020AF33;
    127 : 00120213;
    128 : 00200293;
    129 : FE5214E3;
    12A : 00100E93;
    12B : 01E00193;
    12C : 11DF1A63;
    12D : 00000213;
    12E : 00D00113;
    12F : 01200093;
    130 : 00000013;
    131 : 00000013;
    132 : 0020AF33;
    133 : 00120213;
    134 : 00200293;
    135 : FE5212E3;
    136 : 00000E93;
    137 : 01F00193;
    138 : 0FDF1263;
    139 : 00000213;
    13A : 00D00113;
    13B : 00000013;
    13C : 00700093;
    13D : 0020AF33;
    13E : 00120213;
    13F : 00200293;
    140 : FE5214E3;
    141 : 00100E93;
    142 : 02000193;
    143 : 0BDF1C63;
    144 : 00000213;
    145 : 00D00113;
    146 : 00000013;
    147 : 01300093;
    148 : 00000013;
    149 : 0020AF33;
    14A : 00120213;
    14B : 00200293;
    14C : FE5212E3;
    14D : 00000E93;
    14E : 02100193;
    14F : 09DF1463;
    150 : 00000213;
    151 : 00D00113;
    152 : 00000013;
    153 : 00000013;
    154 : 00600093;
    155 : 0020AF33;
    156 : 00120213;
    157 : 00200293;
    158 : FE5212E3;
    159 : 00100E93;
    15A : 02200193;
    15B : 05DF1C63;
    15C : FFF00093;
    15D : 00102133;
    15E : 00000E93;
    15F : 02300193;
    160 : 05D11263;
    161 : FFF00093;
    162 : 0000A133;
    163 : 00100E93;
    164 : 02400193;
    165 : 03D11863;
    166 : 000020B3;
    167 : 00000E93;
    168 : 02500193;
    169 : 03D09063;
    16A : 01000093;
    16B : 01E00113;
    16C : 0020A033;
    16D : 00000E93;
    16E : 02600193;
    16F : 01D01463;
    170 : 00301C63;
    171 : 0FF0000F;
    172 : 00018063;
    173 : 00119193;
    174 : 0011E193;
    175 : 00000073;
    176 : 0FF0000F;
    177 : 00100193;
    178 : 00000073;
    179 : C0001073;
    17A : 00000000;
    17B : 00000000;
    17C : 00000000;
    17D : 00000000;
    17E : 00000000;
    17F : 00000000;
    180 : 00000000;
    181 : 00000000;
    182 : 00000000;
    183 : 00000000;
    184 : 00000000;
    185 : 00000000;
    186 : 00000000;
    187 : 00000000;
    188 : 00000000;
    189 : 00000000;
    18A : 00000000;
    18B : 00000000;
    18C : 00000000;
    18D : 00000000;
    18E : 00000000;
    18F : 00000000;
    190 : 00000000;
    191 : 00000000;
    192 : 00000000;
    193 : 00000000;
    194 : 00000000;
    195 : 00000000;
    196 : 00000000;
    197 : 00000000;
    198 : 00000000;
    199 : 00000000;
    19A : 00000000;
    19B : 00000000;
    19C : 00000000;
    19D : 00000000;
    19E : 00000000;
    19F : 00000000;
    1A0 : 00000000;
    1A1 : 00000000;
    1A2 : 00000000;
    1A3 : 00000000;
    1A4 : 00000000;
    1A5 : 00000000;
    1A6 : 00000000;
    1A7 : 00000000;
    1A8 : 00000000;
    1A9 : 00000000;
    1AA : 00000000;
    1AB : 00000000;
    1AC : 00000000;
    1AD : 00000000;
    1AE : 00000000;
    1AF : 00000000;
    1B0 : 00000000;
    1B1 : 00000000;
    1B2 : 00000000;
    1B3 : 00000000;
    1B4 : 00000000;
    1B5 : 00000000;
    1B6 : 00000000;
    1B7 : 00000000;
    1B8 : 00000000;
    1B9 : 00000000;
    1BA : 00000000;
    1BB : 00000000;
    1BC : 00000000;
    1BD : 00000000;
    1BE : 00000000;
    1BF : 00000000;
    1C0 : 00000000;
    1C1 : 00000000;
    1C2 : 00000000;
    1C3 : 00000000;
    1C4 : 00000000;
    1C5 : 00000000;
    1C6 : 00000000;
    1C7 : 00000000;
    1C8 : 00000000;
    1C9 : 00000000;
    1CA : 00000000;
    1CB : 00000000;
    1CC : 00000000;
    1CD : 00000000;
    1CE : 00000000;
    1CF : 00000000;
    1D0 : 00000000;
    1D1 : 00000000;
    1D2 : 00000000;
    1D3 : 00000000;
    1D4 : 00000000;
    1D5 : 00000000;
    1D6 : 00000000;
    1D7 : 00000000;
    1D8 : 00000000;
    1D9 : 00000000;
    1DA : 00000000;
    1DB : 00000000;
    1DC : 00000000;
    1DD : 00000000;
    1DE : 00000000;
    1DF : 00000000;
    1E0 : 00000000;
    1E1 : 00000000;
    1E2 : 00000000;
    1E3 : 00000000;
    1E4 : 00000000;
    1E5 : 00000000;
    1E6 : 00000000;
    1E7 : 00000000;
    1E8 : 00000000;
    1E9 : 00000000;
    1EA : 00000000;
    1EB : 00000000;
    1EC : 00000000;
    1ED : 00000000;
    1EE : 00000000;
    1EF : 00000000;
    1F0 : 00000000;
    1F1 : 00000000;
    1F2 : 00000000;
    1F3 : 00000000;
    1F4 : 00000000;
    1F5 : 00000000;
    1F6 : 00000000;
    1F7 : 00000000;
    1F8 : 00000000;
    1F9 : 00000000;
    1FA : 00000000;
    1FB : 00000000;
    1FC : 00000000;
    1FD : 00000000;
    1FE : 00000000;
    1FF : 00000000;
    200 : 00000000;
    201 : 00000000;
    202 : 00000000;
    203 : 00000000;
    204 : 00000000;
    205 : 00000000;
    206 : 00000000;
    207 : 00000000;
    208 : 00000000;
    209 : 00000000;
    20A : 00000000;
    20B : 00000000;
    20C : 00000000;
    20D : 00000000;
    20E : 00000000;
    20F : 00000000;
    210 : 00000000;
    211 : 00000000;
[212..3FF] : 0000000;
END;
