-- Copyright (C) 2017  Intel Corporation. All rights reserved.
-- Your use of Intel Corporation's design tools, logic functions 
-- and other software and tools, and its AMPP partner logic 
-- functions, and any output files from any of the foregoing 
-- (including device programming or simulation files), and any 
-- associated documentation or information are expressly subject 
-- to the terms and conditions of the Intel Program License 
-- Subscription Agreement, the Intel Quartus Prime License Agreement,
-- the Intel FPGA IP License Agreement, or other applicable license
-- agreement, including, without limitation, that your use is for
-- the sole purpose of programming logic devices manufactured by
-- Intel and sold by Intel or its authorized distributors.  Please
-- refer to the applicable agreement for further details.

-- Quartus Prime generated Memory Initialization File (.mif)

WIDTH=32;
DEPTH=1024;

ADDRESS_RADIX=HEX;
DATA_RADIX=HEX;

CONTENT BEGIN
    0 : 04C0006F;
    1 : 34202F73;
    2 : 00800F93;
    3 : 03FF0A63;
    4 : 00900F93;
    5 : 03FF0663;
    6 : 00B00F93;
    7 : 03FF0263;
    8 : 00000F17;
    9 : FE0F0F13;
    A : 000F0463;
    B : 000F0067;
    C : 34202F73;
    D : 000F5463;
    E : 0040006F;
    F : 5391E193;
    10 : 00000F17;
    11 : 7C3F2023;
    12 : FF9FF06F;
    13 : F1402573;
    14 : 00051063;
    15 : 00000297;
    16 : 01028293;
    17 : 30529073;
    18 : 18005073;
    19 : 00000297;
    1A : 01C28293;
    1B : 30529073;
    1C : FFF00293;
    1D : 3B029073;
    1E : 01F00293;
    1F : 3A029073;
    20 : 00000297;
    21 : 01828293;
    22 : 30529073;
    23 : 30205073;
    24 : 30305073;
    25 : 30405073;
    26 : 00000193;
    27 : 00000297;
    28 : F6828293;
    29 : 30529073;
    2A : 00100513;
    2B : 01F51513;
    2C : 00054863;
    2D : 0FF0000F;
    2E : 00100193;
    2F : 00000073;
    30 : 00000297;
    31 : F4028293;
    32 : 00028E63;
    33 : 10529073;
    34 : 0000B2B7;
    35 : 10928293;
    36 : 30229073;
    37 : 30202373;
    38 : F4629EE3;
    39 : 30005073;
    3A : 00000297;
    3B : 01428293;
    3C : 34129073;
    3D : F1402573;
    3E : 30200073;
    3F : 00100093;
    40 : 00000113;
    41 : 00209F33;
    42 : 00100E93;
    43 : 00200193;
    44 : 53DF1E63;
    45 : 00100093;
    46 : 00100113;
    47 : 00209F33;
    48 : 00200E93;
    49 : 00300193;
    4A : 53DF1263;
    4B : 00100093;
    4C : 00700113;
    4D : 00209F33;
    4E : 08000E93;
    4F : 00400193;
    50 : 51DF1663;
    51 : 00100093;
    52 : 00E00113;
    53 : 00209F33;
    54 : 00004EB7;
    55 : 00500193;
    56 : 4FDF1A63;
    57 : 00100093;
    58 : 01F00113;
    59 : 00209F33;
    5A : 80000EB7;
    5B : 00600193;
    5C : 4DDF1E63;
    5D : FFF00093;
    5E : 00000113;
    5F : 00209F33;
    60 : FFF00E93;
    61 : 00700193;
    62 : 4DDF1263;
    63 : FFF00093;
    64 : 00100113;
    65 : 00209F33;
    66 : FFE00E93;
    67 : 00800193;
    68 : 4BDF1663;
    69 : FFF00093;
    6A : 00700113;
    6B : 00209F33;
    6C : F8000E93;
    6D : 00900193;
    6E : 49DF1A63;
    6F : FFF00093;
    70 : 00E00113;
    71 : 00209F33;
    72 : FFFFCEB7;
    73 : 00A00193;
    74 : 47DF1E63;
    75 : FFF00093;
    76 : 01F00113;
    77 : 00209F33;
    78 : 80000EB7;
    79 : 00B00193;
    7A : 47DF1263;
    7B : 212120B7;
    7C : 12108093;
    7D : 00000113;
    7E : 00209F33;
    7F : 21212EB7;
    80 : 121E8E93;
    81 : 00C00193;
    82 : 45DF1263;
    83 : 212120B7;
    84 : 12108093;
    85 : 00100113;
    86 : 00209F33;
    87 : 42424EB7;
    88 : 242E8E93;
    89 : 00D00193;
    8A : 43DF1263;
    8B : 212120B7;
    8C : 12108093;
    8D : 00700113;
    8E : 00209F33;
    8F : 90909EB7;
    90 : 080E8E93;
    91 : 00E00193;
    92 : 41DF1263;
    93 : 212120B7;
    94 : 12108093;
    95 : 00E00113;
    96 : 00209F33;
    97 : 48484EB7;
    98 : 00F00193;
    99 : 3FDF1463;
    9A : 212120B7;
    9B : 12108093;
    9C : 01F00113;
    9D : 00209F33;
    9E : 80000EB7;
    9F : 01000193;
    A0 : 3DDF1663;
    A1 : 212120B7;
    A2 : 12108093;
    A3 : FC000113;
    A4 : 00209F33;
    A5 : 21212EB7;
    A6 : 121E8E93;
    A7 : 01100193;
    A8 : 3BDF1663;
    A9 : 212120B7;
    AA : 12108093;
    AB : FC100113;
    AC : 00209F33;
    AD : 42424EB7;
    AE : 242E8E93;
    AF : 01200193;
    B0 : 39DF1663;
    B1 : 212120B7;
    B2 : 12108093;
    B3 : FC700113;
    B4 : 00209F33;
    B5 : 90909EB7;
    B6 : 080E8E93;
    B7 : 01300193;
    B8 : 37DF1663;
    B9 : 212120B7;
    BA : 12108093;
    BB : FCE00113;
    BC : 00209F33;
    BD : 48484EB7;
    BE : 01400193;
    BF : 35DF1863;
    C0 : 00100093;
    C1 : 00700113;
    C2 : 002090B3;
    C3 : 08000E93;
    C4 : 01600193;
    C5 : 33D09C63;
    C6 : 00100093;
    C7 : 00E00113;
    C8 : 00209133;
    C9 : 00004EB7;
    CA : 01700193;
    CB : 33D11063;
    CC : 00300093;
    CD : 001090B3;
    CE : 01800E93;
    CF : 01800193;
    D0 : 31D09663;
    D1 : 00000213;
    D2 : 00100093;
    D3 : 00700113;
    D4 : 00209F33;
    D5 : 000F0313;
    D6 : 00120213;
    D7 : 00200293;
    D8 : FE5214E3;
    D9 : 08000E93;
    DA : 01900193;
    DB : 2FD31063;
    DC : 00000213;
    DD : 00100093;
    DE : 00E00113;
    DF : 00209F33;
    E0 : 00000013;
    E1 : 000F0313;
    E2 : 00120213;
    E3 : 00200293;
    E4 : FE5212E3;
    E5 : 00004EB7;
    E6 : 01A00193;
    E7 : 2BD31863;
    E8 : 00000213;
    E9 : 00100093;
    EA : 01F00113;
    EB : 00209F33;
    EC : 00000013;
    ED : 00000013;
    EE : 000F0313;
    EF : 00120213;
    F0 : 00200293;
    F1 : FE5210E3;
    F2 : 80000EB7;
    F3 : 01B00193;
    F4 : 27D31E63;
    F5 : 00000213;
    F6 : 00100093;
    F7 : 00700113;
    F8 : 00209F33;
    F9 : 00120213;
    FA : 00200293;
    FB : FE5216E3;
    FC : 08000E93;
    FD : 01C00193;
    FE : 25DF1A63;
    FF : 00000213;
    100 : 00100093;
    101 : 00E00113;
    102 : 00000013;
    103 : 00209F33;
    104 : 00120213;
    105 : 00200293;
    106 : FE5214E3;
    107 : 00004EB7;
    108 : 01D00193;
    109 : 23DF1463;
    10A : 00000213;
    10B : 00100093;
    10C : 01F00113;
    10D : 00000013;
    10E : 00000013;
    10F : 00209F33;
    110 : 00120213;
    111 : 00200293;
    112 : FE5212E3;
    113 : 80000EB7;
    114 : 01E00193;
    115 : 1FDF1C63;
    116 : 00000213;
    117 : 00100093;
    118 : 00000013;
    119 : 00700113;
    11A : 00209F33;
    11B : 00120213;
    11C : 00200293;
    11D : FE5214E3;
    11E : 08000E93;
    11F : 01F00193;
    120 : 1DDF1663;
    121 : 00000213;
    122 : 00100093;
    123 : 00000013;
    124 : 00E00113;
    125 : 00000013;
    126 : 00209F33;
    127 : 00120213;
    128 : 00200293;
    129 : FE5212E3;
    12A : 00004EB7;
    12B : 02000193;
    12C : 19DF1E63;
    12D : 00000213;
    12E : 00100093;
    12F : 00000013;
    130 : 00000013;
    131 : 01F00113;
    132 : 00209F33;
    133 : 00120213;
    134 : 00200293;
    135 : FE5212E3;
    136 : 80000EB7;
    137 : 02100193;
    138 : 17DF1663;
    139 : 00000213;
    13A : 00700113;
    13B : 00100093;
    13C : 00209F33;
    13D : 00120213;
    13E : 00200293;
    13F : FE5216E3;
    140 : 08000E93;
    141 : 02200193;
    142 : 15DF1263;
    143 : 00000213;
    144 : 00E00113;
    145 : 00100093;
    146 : 00000013;
    147 : 00209F33;
    148 : 00120213;
    149 : 00200293;
    14A : FE5214E3;
    14B : 00004EB7;
    14C : 02300193;
    14D : 11DF1C63;
    14E : 00000213;
    14F : 01F00113;
    150 : 00100093;
    151 : 00000013;
    152 : 00000013;
    153 : 00209F33;
    154 : 00120213;
    155 : 00200293;
    156 : FE5212E3;
    157 : 80000EB7;
    158 : 02400193;
    159 : 0FDF1463;
    15A : 00000213;
    15B : 00700113;
    15C : 00000013;
    15D : 00100093;
    15E : 00209F33;
    15F : 00120213;
    160 : 00200293;
    161 : FE5214E3;
    162 : 08000E93;
    163 : 02500193;
    164 : 0BDF1E63;
    165 : 00000213;
    166 : 00E00113;
    167 : 00000013;
    168 : 00100093;
    169 : 00000013;
    16A : 00209F33;
    16B : 00120213;
    16C : 00200293;
    16D : FE5212E3;
    16E : 00004EB7;
    16F : 02600193;
    170 : 09DF1663;
    171 : 00000213;
    172 : 01F00113;
    173 : 00000013;
    174 : 00000013;
    175 : 00100093;
    176 : 00209F33;
    177 : 00120213;
    178 : 00200293;
    179 : FE5212E3;
    17A : 80000EB7;
    17B : 02700193;
    17C : 05DF1E63;
    17D : 00F00093;
    17E : 00101133;
    17F : 00000E93;
    180 : 02800193;
    181 : 05D11463;
    182 : 02000093;
    183 : 00009133;
    184 : 02000E93;
    185 : 02900193;
    186 : 03D11A63;
    187 : 000010B3;
    188 : 00000E93;
    189 : 02A00193;
    18A : 03D09263;
    18B : 40000093;
    18C : 00001137;
    18D : 80010113;
    18E : 00209033;
    18F : 00000E93;
    190 : 02B00193;
    191 : 01D01463;
    192 : 00301C63;
    193 : 0FF0000F;
    194 : 00018063;
    195 : 00119193;
    196 : 0011E193;
    197 : 00000073;
    198 : 0FF0000F;
    199 : 00100193;
    19A : 00000073;
    19B : C0001073;
    19C : 00000000;
    19D : 00000000;
    19E : 00000000;
    19F : 00000000;
    1A0 : 00000000;
    1A1 : 00000000;
    1A2 : 00000000;
    1A3 : 00000000;
    1A4 : 00000000;
    1A5 : 00000000;
    1A6 : 00000000;
    1A7 : 00000000;
    1A8 : 00000000;
    1A9 : 00000000;
    1AA : 00000000;
    1AB : 00000000;
    1AC : 00000000;
    1AD : 00000000;
    1AE : 00000000;
    1AF : 00000000;
    1B0 : 00000000;
    1B1 : 00000000;
    1B2 : 00000000;
    1B3 : 00000000;
    1B4 : 00000000;
    1B5 : 00000000;
    1B6 : 00000000;
    1B7 : 00000000;
    1B8 : 00000000;
    1B9 : 00000000;
    1BA : 00000000;
    1BB : 00000000;
    1BC : 00000000;
    1BD : 00000000;
    1BE : 00000000;
    1BF : 00000000;
    1C0 : 00000000;
    1C1 : 00000000;
    1C2 : 00000000;
    1C3 : 00000000;
    1C4 : 00000000;
    1C5 : 00000000;
    1C6 : 00000000;
    1C7 : 00000000;
    1C8 : 00000000;
    1C9 : 00000000;
    1CA : 00000000;
    1CB : 00000000;
    1CC : 00000000;
    1CD : 00000000;
    1CE : 00000000;
    1CF : 00000000;
    1D0 : 00000000;
    1D1 : 00000000;
    1D2 : 00000000;
    1D3 : 00000000;
    1D4 : 00000000;
    1D5 : 00000000;
    1D6 : 00000000;
    1D7 : 00000000;
    1D8 : 00000000;
    1D9 : 00000000;
    1DA : 00000000;
    1DB : 00000000;
    1DC : 00000000;
    1DD : 00000000;
    1DE : 00000000;
    1DF : 00000000;
    1E0 : 00000000;
    1E1 : 00000000;
    1E2 : 00000000;
    1E3 : 00000000;
    1E4 : 00000000;
    1E5 : 00000000;
    1E6 : 00000000;
    1E7 : 00000000;
    1E8 : 00000000;
    1E9 : 00000000;
    1EA : 00000000;
    1EB : 00000000;
    1EC : 00000000;
    1ED : 00000000;
    1EE : 00000000;
    1EF : 00000000;
    1F0 : 00000000;
    1F1 : 00000000;
    1F2 : 00000000;
    1F3 : 00000000;
    1F4 : 00000000;
    1F5 : 00000000;
    1F6 : 00000000;
    1F7 : 00000000;
    1F8 : 00000000;
    1F9 : 00000000;
    1FA : 00000000;
    1FB : 00000000;
    1FC : 00000000;
    1FD : 00000000;
    1FE : 00000000;
    1FF : 00000000;
    200 : 00000000;
    201 : 00000000;
    202 : 00000000;
    203 : 00000000;
    204 : 00000000;
    205 : 00000000;
    206 : 00000000;
    207 : 00000000;
    208 : 00000000;
    209 : 00000000;
    20A : 00000000;
    20B : 00000000;
    20C : 00000000;
    20D : 00000000;
    20E : 00000000;
    20F : 00000000;
    210 : 00000000;
    211 : 00000000;
[212..3FF] : 0000000;
END;
