-- Copyright (C) 2017  Intel Corporation. All rights reserved.
-- Your use of Intel Corporation's design tools, logic functions 
-- and other software and tools, and its AMPP partner logic 
-- functions, and any output files from any of the foregoing 
-- (including device programming or simulation files), and any 
-- associated documentation or information are expressly subject 
-- to the terms and conditions of the Intel Program License 
-- Subscription Agreement, the Intel Quartus Prime License Agreement,
-- the Intel FPGA IP License Agreement, or other applicable license
-- agreement, including, without limitation, that your use is for
-- the sole purpose of programming logic devices manufactured by
-- Intel and sold by Intel or its authorized distributors.  Please
-- refer to the applicable agreement for further details.

-- Quartus Prime generated Memory Initialization File (.mif)

WIDTH=32;
DEPTH=1024;

ADDRESS_RADIX=HEX;
DATA_RADIX=HEX;

CONTENT BEGIN
    0 : 04C0006F;
    1 : 34202F73;
    2 : 00800F93;
    3 : 03FF0A63;
    4 : 00900F93;
    5 : 03FF0663;
    6 : 00B00F93;
    7 : 03FF0263;
    8 : 00000F17;
    9 : FE0F0F13;
    A : 000F0463;
    B : 000F0067;
    C : 34202F73;
    D : 000F5463;
    E : 0040006F;
    F : 5391E193;
    10 : 00000F17;
    11 : 7C3F2023;
    12 : FF9FF06F;
    13 : F1402573;
    14 : 00051063;
    15 : 00000297;
    16 : 01028293;
    17 : 30529073;
    18 : 18005073;
    19 : 00000297;
    1A : 01C28293;
    1B : 30529073;
    1C : FFF00293;
    1D : 3B029073;
    1E : 01F00293;
    1F : 3A029073;
    20 : 00000297;
    21 : 01828293;
    22 : 30529073;
    23 : 30205073;
    24 : 30305073;
    25 : 30405073;
    26 : 00000193;
    27 : 00000297;
    28 : F6828293;
    29 : 30529073;
    2A : 00100513;
    2B : 01F51513;
    2C : 00054863;
    2D : 0FF0000F;
    2E : 00100193;
    2F : 00000073;
    30 : 00000297;
    31 : F4028293;
    32 : 00028E63;
    33 : 10529073;
    34 : 0000B2B7;
    35 : 10928293;
    36 : 30229073;
    37 : 30202373;
    38 : F4629EE3;
    39 : 30005073;
    3A : 00000297;
    3B : 01428293;
    3C : 34129073;
    3D : F1402573;
    3E : 30200073;
    3F : 800000B7;
    40 : 00000113;
    41 : 4020DF33;
    42 : 80000EB7;
    43 : 00200193;
    44 : 59DF1463;
    45 : 800000B7;
    46 : 00100113;
    47 : 4020DF33;
    48 : C0000EB7;
    49 : 00300193;
    4A : 57DF1863;
    4B : 800000B7;
    4C : 00700113;
    4D : 4020DF33;
    4E : FF000EB7;
    4F : 00400193;
    50 : 55DF1C63;
    51 : 800000B7;
    52 : 00E00113;
    53 : 4020DF33;
    54 : FFFE0EB7;
    55 : 00500193;
    56 : 55DF1063;
    57 : 800000B7;
    58 : 00108093;
    59 : 01F00113;
    5A : 4020DF33;
    5B : FFF00E93;
    5C : 00600193;
    5D : 53DF1263;
    5E : 800000B7;
    5F : FFF08093;
    60 : 00000113;
    61 : 4020DF33;
    62 : 80000EB7;
    63 : FFFE8E93;
    64 : 00700193;
    65 : 51DF1263;
    66 : 800000B7;
    67 : FFF08093;
    68 : 00100113;
    69 : 4020DF33;
    6A : 40000EB7;
    6B : FFFE8E93;
    6C : 00800193;
    6D : 4FDF1263;
    6E : 800000B7;
    6F : FFF08093;
    70 : 00700113;
    71 : 4020DF33;
    72 : 01000EB7;
    73 : FFFE8E93;
    74 : 00900193;
    75 : 4DDF1263;
    76 : 800000B7;
    77 : FFF08093;
    78 : 00E00113;
    79 : 4020DF33;
    7A : 00020EB7;
    7B : FFFE8E93;
    7C : 00A00193;
    7D : 4BDF1263;
    7E : 800000B7;
    7F : FFF08093;
    80 : 01F00113;
    81 : 4020DF33;
    82 : 00000E93;
    83 : 00B00193;
    84 : 49DF1463;
    85 : 818180B7;
    86 : 18108093;
    87 : 00000113;
    88 : 4020DF33;
    89 : 81818EB7;
    8A : 181E8E93;
    8B : 00C00193;
    8C : 47DF1463;
    8D : 818180B7;
    8E : 18108093;
    8F : 00100113;
    90 : 4020DF33;
    91 : C0C0CEB7;
    92 : 0C0E8E93;
    93 : 00D00193;
    94 : 45DF1463;
    95 : 818180B7;
    96 : 18108093;
    97 : 00700113;
    98 : 4020DF33;
    99 : FF030EB7;
    9A : 303E8E93;
    9B : 00E00193;
    9C : 43DF1463;
    9D : 818180B7;
    9E : 18108093;
    9F : 00E00113;
    A0 : 4020DF33;
    A1 : FFFE0EB7;
    A2 : 606E8E93;
    A3 : 00F00193;
    A4 : 41DF1463;
    A5 : 818180B7;
    A6 : 18108093;
    A7 : 01F00113;
    A8 : 4020DF33;
    A9 : FFF00E93;
    AA : 01000193;
    AB : 3FDF1663;
    AC : 818180B7;
    AD : 18108093;
    AE : FC000113;
    AF : 4020DF33;
    B0 : 81818EB7;
    B1 : 181E8E93;
    B2 : 01100193;
    B3 : 3DDF1663;
    B4 : 818180B7;
    B5 : 18108093;
    B6 : FC100113;
    B7 : 4020DF33;
    B8 : C0C0CEB7;
    B9 : 0C0E8E93;
    BA : 01200193;
    BB : 3BDF1663;
    BC : 818180B7;
    BD : 18108093;
    BE : FC700113;
    BF : 4020DF33;
    C0 : FF030EB7;
    C1 : 303E8E93;
    C2 : 01300193;
    C3 : 39DF1663;
    C4 : 818180B7;
    C5 : 18108093;
    C6 : FCE00113;
    C7 : 4020DF33;
    C8 : FFFE0EB7;
    C9 : 606E8E93;
    CA : 01400193;
    CB : 37DF1663;
    CC : 818180B7;
    CD : 18108093;
    CE : FFF00113;
    CF : 4020DF33;
    D0 : FFF00E93;
    D1 : 01500193;
    D2 : 35DF1863;
    D3 : 800000B7;
    D4 : 00700113;
    D5 : 4020D0B3;
    D6 : FF000EB7;
    D7 : 01600193;
    D8 : 33D09C63;
    D9 : 800000B7;
    DA : 00E00113;
    DB : 4020D133;
    DC : FFFE0EB7;
    DD : 01700193;
    DE : 33D11063;
    DF : 00700093;
    E0 : 4010D0B3;
    E1 : 00000E93;
    E2 : 01800193;
    E3 : 31D09663;
    E4 : 00000213;
    E5 : 800000B7;
    E6 : 00700113;
    E7 : 4020DF33;
    E8 : 000F0313;
    E9 : 00120213;
    EA : 00200293;
    EB : FE5214E3;
    EC : FF000EB7;
    ED : 01900193;
    EE : 2FD31063;
    EF : 00000213;
    F0 : 800000B7;
    F1 : 00E00113;
    F2 : 4020DF33;
    F3 : 00000013;
    F4 : 000F0313;
    F5 : 00120213;
    F6 : 00200293;
    F7 : FE5212E3;
    F8 : FFFE0EB7;
    F9 : 01A00193;
    FA : 2BD31863;
    FB : 00000213;
    FC : 800000B7;
    FD : 01F00113;
    FE : 4020DF33;
    FF : 00000013;
    100 : 00000013;
    101 : 000F0313;
    102 : 00120213;
    103 : 00200293;
    104 : FE5210E3;
    105 : FFF00E93;
    106 : 01B00193;
    107 : 27D31E63;
    108 : 00000213;
    109 : 800000B7;
    10A : 00700113;
    10B : 4020DF33;
    10C : 00120213;
    10D : 00200293;
    10E : FE5216E3;
    10F : FF000EB7;
    110 : 01C00193;
    111 : 25DF1A63;
    112 : 00000213;
    113 : 800000B7;
    114 : 00E00113;
    115 : 00000013;
    116 : 4020DF33;
    117 : 00120213;
    118 : 00200293;
    119 : FE5214E3;
    11A : FFFE0EB7;
    11B : 01D00193;
    11C : 23DF1463;
    11D : 00000213;
    11E : 800000B7;
    11F : 01F00113;
    120 : 00000013;
    121 : 00000013;
    122 : 4020DF33;
    123 : 00120213;
    124 : 00200293;
    125 : FE5212E3;
    126 : FFF00E93;
    127 : 01E00193;
    128 : 1FDF1C63;
    129 : 00000213;
    12A : 800000B7;
    12B : 00000013;
    12C : 00700113;
    12D : 4020DF33;
    12E : 00120213;
    12F : 00200293;
    130 : FE5214E3;
    131 : FF000EB7;
    132 : 01F00193;
    133 : 1DDF1663;
    134 : 00000213;
    135 : 800000B7;
    136 : 00000013;
    137 : 00E00113;
    138 : 00000013;
    139 : 4020DF33;
    13A : 00120213;
    13B : 00200293;
    13C : FE5212E3;
    13D : FFFE0EB7;
    13E : 02000193;
    13F : 19DF1E63;
    140 : 00000213;
    141 : 800000B7;
    142 : 00000013;
    143 : 00000013;
    144 : 01F00113;
    145 : 4020DF33;
    146 : 00120213;
    147 : 00200293;
    148 : FE5212E3;
    149 : FFF00E93;
    14A : 02100193;
    14B : 17DF1663;
    14C : 00000213;
    14D : 00700113;
    14E : 800000B7;
    14F : 4020DF33;
    150 : 00120213;
    151 : 00200293;
    152 : FE5216E3;
    153 : FF000EB7;
    154 : 02200193;
    155 : 15DF1263;
    156 : 00000213;
    157 : 00E00113;
    158 : 800000B7;
    159 : 00000013;
    15A : 4020DF33;
    15B : 00120213;
    15C : 00200293;
    15D : FE5214E3;
    15E : FFFE0EB7;
    15F : 02300193;
    160 : 11DF1C63;
    161 : 00000213;
    162 : 01F00113;
    163 : 800000B7;
    164 : 00000013;
    165 : 00000013;
    166 : 4020DF33;
    167 : 00120213;
    168 : 00200293;
    169 : FE5212E3;
    16A : FFF00E93;
    16B : 02400193;
    16C : 0FDF1463;
    16D : 00000213;
    16E : 00700113;
    16F : 00000013;
    170 : 800000B7;
    171 : 4020DF33;
    172 : 00120213;
    173 : 00200293;
    174 : FE5214E3;
    175 : FF000EB7;
    176 : 02500193;
    177 : 0BDF1E63;
    178 : 00000213;
    179 : 00E00113;
    17A : 00000013;
    17B : 800000B7;
    17C : 00000013;
    17D : 4020DF33;
    17E : 00120213;
    17F : 00200293;
    180 : FE5212E3;
    181 : FFFE0EB7;
    182 : 02600193;
    183 : 09DF1663;
    184 : 00000213;
    185 : 01F00113;
    186 : 00000013;
    187 : 00000013;
    188 : 800000B7;
    189 : 4020DF33;
    18A : 00120213;
    18B : 00200293;
    18C : FE5212E3;
    18D : FFF00E93;
    18E : 02700193;
    18F : 05DF1E63;
    190 : 00F00093;
    191 : 40105133;
    192 : 00000E93;
    193 : 02800193;
    194 : 05D11463;
    195 : 02000093;
    196 : 4000D133;
    197 : 02000E93;
    198 : 02900193;
    199 : 03D11A63;
    19A : 400050B3;
    19B : 00000E93;
    19C : 02A00193;
    19D : 03D09263;
    19E : 40000093;
    19F : 00001137;
    1A0 : 80010113;
    1A1 : 4020D033;
    1A2 : 00000E93;
    1A3 : 02B00193;
    1A4 : 01D01463;
    1A5 : 00301C63;
    1A6 : 0FF0000F;
    1A7 : 00018063;
    1A8 : 00119193;
    1A9 : 0011E193;
    1AA : 00000073;
    1AB : 0FF0000F;
    1AC : 00100193;
    1AD : 00000073;
    1AE : C0001073;
    1AF : 00000000;
    1B0 : 00000000;
    1B1 : 00000000;
    1B2 : 00000000;
    1B3 : 00000000;
    1B4 : 00000000;
    1B5 : 00000000;
    1B6 : 00000000;
    1B7 : 00000000;
    1B8 : 00000000;
    1B9 : 00000000;
    1BA : 00000000;
    1BB : 00000000;
    1BC : 00000000;
    1BD : 00000000;
    1BE : 00000000;
    1BF : 00000000;
    1C0 : 00000000;
    1C1 : 00000000;
    1C2 : 00000000;
    1C3 : 00000000;
    1C4 : 00000000;
    1C5 : 00000000;
    1C6 : 00000000;
    1C7 : 00000000;
    1C8 : 00000000;
    1C9 : 00000000;
    1CA : 00000000;
    1CB : 00000000;
    1CC : 00000000;
    1CD : 00000000;
    1CE : 00000000;
    1CF : 00000000;
    1D0 : 00000000;
    1D1 : 00000000;
    1D2 : 00000000;
    1D3 : 00000000;
    1D4 : 00000000;
    1D5 : 00000000;
    1D6 : 00000000;
    1D7 : 00000000;
    1D8 : 00000000;
    1D9 : 00000000;
    1DA : 00000000;
    1DB : 00000000;
    1DC : 00000000;
    1DD : 00000000;
    1DE : 00000000;
    1DF : 00000000;
    1E0 : 00000000;
    1E1 : 00000000;
    1E2 : 00000000;
    1E3 : 00000000;
    1E4 : 00000000;
    1E5 : 00000000;
    1E6 : 00000000;
    1E7 : 00000000;
    1E8 : 00000000;
    1E9 : 00000000;
    1EA : 00000000;
    1EB : 00000000;
    1EC : 00000000;
    1ED : 00000000;
    1EE : 00000000;
    1EF : 00000000;
    1F0 : 00000000;
    1F1 : 00000000;
    1F2 : 00000000;
    1F3 : 00000000;
    1F4 : 00000000;
    1F5 : 00000000;
    1F6 : 00000000;
    1F7 : 00000000;
    1F8 : 00000000;
    1F9 : 00000000;
    1FA : 00000000;
    1FB : 00000000;
    1FC : 00000000;
    1FD : 00000000;
    1FE : 00000000;
    1FF : 00000000;
    200 : 00000000;
    201 : 00000000;
    202 : 00000000;
    203 : 00000000;
    204 : 00000000;
    205 : 00000000;
    206 : 00000000;
    207 : 00000000;
    208 : 00000000;
    209 : 00000000;
    20A : 00000000;
    20B : 00000000;
    20C : 00000000;
    20D : 00000000;
    20E : 00000000;
    20F : 00000000;
    210 : 00000000;
    211 : 00000000;
[212..3FF] : 0000000;
END;
