-- Copyright (C) 2017  Intel Corporation. All rights reserved.
-- Your use of Intel Corporation's design tools, logic functions 
-- and other software and tools, and its AMPP partner logic 
-- functions, and any output files from any of the foregoing 
-- (including device programming or simulation files), and any 
-- associated documentation or information are expressly subject 
-- to the terms and conditions of the Intel Program License 
-- Subscription Agreement, the Intel Quartus Prime License Agreement,
-- the Intel FPGA IP License Agreement, or other applicable license
-- agreement, including, without limitation, that your use is for
-- the sole purpose of programming logic devices manufactured by
-- Intel and sold by Intel or its authorized distributors.  Please
-- refer to the applicable agreement for further details.

-- Quartus Prime generated Memory Initialization File (.mif)

WIDTH=32;
DEPTH=1024;

ADDRESS_RADIX=HEX;
DATA_RADIX=HEX;

CONTENT BEGIN
    0 : 04C0006F;
    1 : 34202F73;
    2 : 00800F93;
    3 : 03FF0A63;
    4 : 00900F93;
    5 : 03FF0663;
    6 : 00B00F93;
    7 : 03FF0263;
    8 : 00000F17;
    9 : FE0F0F13;
    A : 000F0463;
    B : 000F0067;
    C : 34202F73;
    D : 000F5463;
    E : 0040006F;
    F : 5391E193;
    10 : 00000F17;
    11 : 7C3F2023;
    12 : FF9FF06F;
    13 : F1402573;
    14 : 00051063;
    15 : 00000297;
    16 : 01028293;
    17 : 30529073;
    18 : 18005073;
    19 : 00000297;
    1A : 01C28293;
    1B : 30529073;
    1C : FFF00293;
    1D : 3B029073;
    1E : 01F00293;
    1F : 3A029073;
    20 : 00000297;
    21 : 01828293;
    22 : 30529073;
    23 : 30205073;
    24 : 30305073;
    25 : 30405073;
    26 : 00000193;
    27 : 00000297;
    28 : F6828293;
    29 : 30529073;
    2A : 00100513;
    2B : 01F51513;
    2C : 00054863;
    2D : 0FF0000F;
    2E : 00100193;
    2F : 00000073;
    30 : 00000297;
    31 : F4028293;
    32 : 00028E63;
    33 : 10529073;
    34 : 0000B2B7;
    35 : 10928293;
    36 : 30229073;
    37 : 30202373;
    38 : F4629EE3;
    39 : 30005073;
    3A : 00000297;
    3B : 01428293;
    3C : 34129073;
    3D : F1402573;
    3E : 30200073;
    3F : 00001097;
    40 : B0408093;
    41 : FAA00113;
    42 : 00208023;
    43 : 00008F03;
    44 : FAA00E93;
    45 : 00200193;
    46 : 3DDF1C63;
    47 : 00001097;
    48 : AE408093;
    49 : 00000113;
    4A : 002080A3;
    4B : 00108F03;
    4C : 00000E93;
    4D : 00300193;
    4E : 3BDF1C63;
    4F : 00001097;
    50 : AC408093;
    51 : FFFFF137;
    52 : FA010113;
    53 : 00208123;
    54 : 00209F03;
    55 : FFFFFEB7;
    56 : FA0E8E93;
    57 : 00400193;
    58 : 39DF1863;
    59 : 00001097;
    5A : A9C08093;
    5B : 00A00113;
    5C : 002081A3;
    5D : 00308F03;
    5E : 00A00E93;
    5F : 00500193;
    60 : 37DF1863;
    61 : 00001097;
    62 : A8308093;
    63 : FAA00113;
    64 : FE208EA3;
    65 : FFD08F03;
    66 : FAA00E93;
    67 : 00600193;
    68 : 35DF1863;
    69 : 00001097;
    6A : A6308093;
    6B : 00000113;
    6C : FE208F23;
    6D : FFE08F03;
    6E : 00000E93;
    6F : 00700193;
    70 : 33DF1863;
    71 : 00001097;
    72 : A4308093;
    73 : FA000113;
    74 : FE208FA3;
    75 : FFF08F03;
    76 : FA000E93;
    77 : 00800193;
    78 : 31DF1863;
    79 : 00001097;
    7A : A2308093;
    7B : 00A00113;
    7C : 00208023;
    7D : 00008F03;
    7E : 00A00E93;
    7F : 00900193;
    80 : 2FDF1863;
    81 : 00001097;
    82 : A0408093;
    83 : 12345137;
    84 : 67810113;
    85 : FE008213;
    86 : 02220023;
    87 : 00008283;
    88 : 07800E93;
    89 : 00A00193;
    8A : 2DD29463;
    8B : 00001097;
    8C : 9DC08093;
    8D : 00003137;
    8E : 09810113;
    8F : FFA08093;
    90 : 002083A3;
    91 : 00001217;
    92 : 9C520213;
    93 : 00020283;
    94 : F9800E93;
    95 : 00B00193;
    96 : 29D29C63;
    97 : 00C00193;
    98 : 00000213;
    99 : FDD00093;
    9A : 00001117;
    9B : 99810113;
    9C : 00110023;
    9D : 00010F03;
    9E : FDD00E93;
    9F : 27DF1A63;
    A0 : 00120213;
    A1 : 00200293;
    A2 : FC521EE3;
    A3 : 00D00193;
    A4 : 00000213;
    A5 : FCD00093;
    A6 : 00001117;
    A7 : 96810113;
    A8 : 00000013;
    A9 : 001100A3;
    AA : 00110F03;
    AB : FCD00E93;
    AC : 25DF1063;
    AD : 00120213;
    AE : 00200293;
    AF : FC521CE3;
    B0 : 00E00193;
    B1 : 00000213;
    B2 : FCC00093;
    B3 : 00001117;
    B4 : 93410113;
    B5 : 00000013;
    B6 : 00000013;
    B7 : 00110123;
    B8 : 00210F03;
    B9 : FCC00E93;
    BA : 21DF1463;
    BB : 00120213;
    BC : 00200293;
    BD : FC521AE3;
    BE : 00F00193;
    BF : 00000213;
    C0 : FBC00093;
    C1 : 00000013;
    C2 : 00001117;
    C3 : 8F810113;
    C4 : 001101A3;
    C5 : 00310F03;
    C6 : FBC00E93;
    C7 : 1DDF1A63;
    C8 : 00120213;
    C9 : 00200293;
    CA : FC521CE3;
    CB : 01000193;
    CC : 00000213;
    CD : FBB00093;
    CE : 00000013;
    CF : 00001117;
    D0 : 8C410113;
    D1 : 00000013;
    D2 : 00110223;
    D3 : 00410F03;
    D4 : FBB00E93;
    D5 : 19DF1E63;
    D6 : 00120213;
    D7 : 00200293;
    D8 : FC521AE3;
    D9 : 01100193;
    DA : 00000213;
    DB : FAB00093;
    DC : 00000013;
    DD : 00000013;
    DE : 00001117;
    DF : 88810113;
    E0 : 001102A3;
    E1 : 00510F03;
    E2 : FAB00E93;
    E3 : 17DF1263;
    E4 : 00120213;
    E5 : 00200293;
    E6 : FC521AE3;
    E7 : 01200193;
    E8 : 00000213;
    E9 : 00001117;
    EA : 85C10113;
    EB : 03300093;
    EC : 00110023;
    ED : 00010F03;
    EE : 03300E93;
    EF : 13DF1A63;
    F0 : 00120213;
    F1 : 00200293;
    F2 : FC521EE3;
    F3 : 01300193;
    F4 : 00000213;
    F5 : 00001117;
    F6 : 82C10113;
    F7 : 02300093;
    F8 : 00000013;
    F9 : 001100A3;
    FA : 00110F03;
    FB : 02300E93;
    FC : 11DF1063;
    FD : 00120213;
    FE : 00200293;
    FF : FC521CE3;
    100 : 01400193;
    101 : 00000213;
    102 : 00000117;
    103 : 7F810113;
    104 : 02200093;
    105 : 00000013;
    106 : 00000013;
    107 : 00110123;
    108 : 00210F03;
    109 : 02200E93;
    10A : 0DDF1463;
    10B : 00120213;
    10C : 00200293;
    10D : FC521AE3;
    10E : 01500193;
    10F : 00000213;
    110 : 00000117;
    111 : 7C010113;
    112 : 00000013;
    113 : 01200093;
    114 : 001101A3;
    115 : 00310F03;
    116 : 01200E93;
    117 : 09DF1A63;
    118 : 00120213;
    119 : 00200293;
    11A : FC521CE3;
    11B : 01600193;
    11C : 00000213;
    11D : 00000117;
    11E : 78C10113;
    11F : 00000013;
    120 : 01100093;
    121 : 00000013;
    122 : 00110223;
    123 : 00410F03;
    124 : 01100E93;
    125 : 05DF1E63;
    126 : 00120213;
    127 : 00200293;
    128 : FC521AE3;
    129 : 01700193;
    12A : 00000213;
    12B : 00000117;
    12C : 75410113;
    12D : 00000013;
    12E : 00000013;
    12F : 00100093;
    130 : 001102A3;
    131 : 00510F03;
    132 : 00100E93;
    133 : 03DF1263;
    134 : 00120213;
    135 : 00200293;
    136 : FC521AE3;
    137 : 0EF00513;
    138 : 00000597;
    139 : 72058593;
    13A : 00A581A3;
    13B : 00301C63;
    13C : 0FF0000F;
    13D : 00018063;
    13E : 00119193;
    13F : 0011E193;
    140 : 00000073;
    141 : 0FF0000F;
    142 : 00100193;
    143 : 00000073;
    144 : C0001073;
    145 : 00000000;
    146 : 00000000;
    147 : 00000000;
    148 : 00000000;
    149 : 00000000;
    14A : 00000000;
    14B : 00000000;
    14C : 00000000;
    14D : 00000000;
    14E : 00000000;
    14F : 00000000;
    150 : 00000000;
    151 : 00000000;
    152 : 00000000;
    153 : 00000000;
    154 : 00000000;
    155 : 00000000;
    156 : 00000000;
    157 : 00000000;
    158 : 00000000;
    159 : 00000000;
    15A : 00000000;
    15B : 00000000;
    15C : 00000000;
    15D : 00000000;
    15E : 00000000;
    15F : 00000000;
    160 : 00000000;
    161 : 00000000;
    162 : 00000000;
    163 : 00000000;
    164 : 00000000;
    165 : 00000000;
    166 : 00000000;
    167 : 00000000;
    168 : 00000000;
    169 : 00000000;
    16A : 00000000;
    16B : 00000000;
    16C : 00000000;
    16D : 00000000;
    16E : 00000000;
    16F : 00000000;
    170 : 00000000;
    171 : 00000000;
    172 : 00000000;
    173 : 00000000;
    174 : 00000000;
    175 : 00000000;
    176 : 00000000;
    177 : 00000000;
    178 : 00000000;
    179 : 00000000;
    17A : 00000000;
    17B : 00000000;
    17C : 00000000;
    17D : 00000000;
    17E : 00000000;
    17F : 00000000;
    180 : 00000000;
    181 : 00000000;
    182 : 00000000;
    183 : 00000000;
    184 : 00000000;
    185 : 00000000;
    186 : 00000000;
    187 : 00000000;
    188 : 00000000;
    189 : 00000000;
    18A : 00000000;
    18B : 00000000;
    18C : 00000000;
    18D : 00000000;
    18E : 00000000;
    18F : 00000000;
    190 : 00000000;
    191 : 00000000;
    192 : 00000000;
    193 : 00000000;
    194 : 00000000;
    195 : 00000000;
    196 : 00000000;
    197 : 00000000;
    198 : 00000000;
    199 : 00000000;
    19A : 00000000;
    19B : 00000000;
    19C : 00000000;
    19D : 00000000;
    19E : 00000000;
    19F : 00000000;
    1A0 : 00000000;
    1A1 : 00000000;
    1A2 : 00000000;
    1A3 : 00000000;
    1A4 : 00000000;
    1A5 : 00000000;
    1A6 : 00000000;
    1A7 : 00000000;
    1A8 : 00000000;
    1A9 : 00000000;
    1AA : 00000000;
    1AB : 00000000;
    1AC : 00000000;
    1AD : 00000000;
    1AE : 00000000;
    1AF : 00000000;
    1B0 : 00000000;
    1B1 : 00000000;
    1B2 : 00000000;
    1B3 : 00000000;
    1B4 : 00000000;
    1B5 : 00000000;
    1B6 : 00000000;
    1B7 : 00000000;
    1B8 : 00000000;
    1B9 : 00000000;
    1BA : 00000000;
    1BB : 00000000;
    1BC : 00000000;
    1BD : 00000000;
    1BE : 00000000;
    1BF : 00000000;
    1C0 : 00000000;
    1C1 : 00000000;
    1C2 : 00000000;
    1C3 : 00000000;
    1C4 : 00000000;
    1C5 : 00000000;
    1C6 : 00000000;
    1C7 : 00000000;
    1C8 : 00000000;
    1C9 : 00000000;
    1CA : 00000000;
    1CB : 00000000;
    1CC : 00000000;
    1CD : 00000000;
    1CE : 00000000;
    1CF : 00000000;
    1D0 : 00000000;
    1D1 : 00000000;
    1D2 : 00000000;
    1D3 : 00000000;
    1D4 : 00000000;
    1D5 : 00000000;
    1D6 : 00000000;
    1D7 : 00000000;
    1D8 : 00000000;
    1D9 : 00000000;
    1DA : 00000000;
    1DB : 00000000;
    1DC : 00000000;
    1DD : 00000000;
    1DE : 00000000;
    1DF : 00000000;
    1E0 : 00000000;
    1E1 : 00000000;
    1E2 : 00000000;
    1E3 : 00000000;
    1E4 : 00000000;
    1E5 : 00000000;
    1E6 : 00000000;
    1E7 : 00000000;
    1E8 : 00000000;
    1E9 : 00000000;
    1EA : 00000000;
    1EB : 00000000;
    1EC : 00000000;
    1ED : 00000000;
    1EE : 00000000;
    1EF : 00000000;
    1F0 : 00000000;
    1F1 : 00000000;
    1F2 : 00000000;
    1F3 : 00000000;
    1F4 : 00000000;
    1F5 : 00000000;
    1F6 : 00000000;
    1F7 : 00000000;
    1F8 : 00000000;
    1F9 : 00000000;
    1FA : 00000000;
    1FB : 00000000;
    1FC : 00000000;
    1FD : 00000000;
    1FE : 00000000;
    1FF : 00000000;
    200 : 00000000;
    201 : 00000000;
    202 : 00000000;
    203 : 00000000;
    204 : 00000000;
    205 : 00000000;
    206 : 00000000;
    207 : 00000000;
    208 : 00000000;
    209 : 00000000;
    20A : 00000000;
    20B : 00000000;
    20C : 00000000;
    20D : 00000000;
    20E : 00000000;
    20F : 00000000;
    210 : 00000000;
    211 : 00000000;
    212 : 00000000;
    213 : 00000000;
    214 : 00000000;
    215 : 00000000;
    216 : 00000000;
    217 : 00000000;
    218 : 00000000;
    219 : 00000000;
    21A : 00000000;
    21B : 00000000;
    21C : 00000000;
    21D : 00000000;
    21E : 00000000;
    21F : 00000000;
    220 : 00000000;
    221 : 00000000;
    222 : 00000000;
    223 : 00000000;
    224 : 00000000;
    225 : 00000000;
    226 : 00000000;
    227 : 00000000;
    228 : 00000000;
    229 : 00000000;
    22A : 00000000;
    22B : 00000000;
    22C : 00000000;
    22D : 00000000;
    22E : 00000000;
    22F : 00000000;
    230 : 00000000;
    231 : 00000000;
    232 : 00000000;
    233 : 00000000;
    234 : 00000000;
    235 : 00000000;
    236 : 00000000;
    237 : 00000000;
    238 : 00000000;
    239 : 00000000;
    23A : 00000000;
    23B : 00000000;
    23C : 00000000;
    23D : 00000000;
    23E : 00000000;
    23F : 00000000;
    240 : 00000000;
    241 : 00000000;
    242 : 00000000;
    243 : 00000000;
    244 : 00000000;
    245 : 00000000;
    246 : 00000000;
    247 : 00000000;
    248 : 00000000;
    249 : 00000000;
    24A : 00000000;
    24B : 00000000;
    24C : 00000000;
    24D : 00000000;
    24E : 00000000;
    24F : 00000000;
    250 : 00000000;
    251 : 00000000;
    252 : 00000000;
    253 : 00000000;
    254 : 00000000;
    255 : 00000000;
    256 : 00000000;
    257 : 00000000;
    258 : 00000000;
    259 : 00000000;
    25A : 00000000;
    25B : 00000000;
    25C : 00000000;
    25D : 00000000;
    25E : 00000000;
    25F : 00000000;
    260 : 00000000;
    261 : 00000000;
    262 : 00000000;
    263 : 00000000;
    264 : 00000000;
    265 : 00000000;
    266 : 00000000;
    267 : 00000000;
    268 : 00000000;
    269 : 00000000;
    26A : 00000000;
    26B : 00000000;
    26C : 00000000;
    26D : 00000000;
    26E : 00000000;
    26F : 00000000;
    270 : 00000000;
    271 : 00000000;
    272 : 00000000;
    273 : 00000000;
    274 : 00000000;
    275 : 00000000;
    276 : 00000000;
    277 : 00000000;
    278 : 00000000;
    279 : 00000000;
    27A : 00000000;
    27B : 00000000;
    27C : 00000000;
    27D : 00000000;
    27E : 00000000;
    27F : 00000000;
    280 : 00000000;
    281 : 00000000;
    282 : 00000000;
    283 : 00000000;
    284 : 00000000;
    285 : 00000000;
    286 : 00000000;
    287 : 00000000;
    288 : 00000000;
    289 : 00000000;
    28A : 00000000;
    28B : 00000000;
    28C : 00000000;
    28D : 00000000;
    28E : 00000000;
    28F : 00000000;
    290 : 00000000;
    291 : 00000000;
    292 : 00000000;
    293 : 00000000;
    294 : 00000000;
    295 : 00000000;
    296 : 00000000;
    297 : 00000000;
    298 : 00000000;
    299 : 00000000;
    29A : 00000000;
    29B : 00000000;
    29C : 00000000;
    29D : 00000000;
    29E : 00000000;
    29F : 00000000;
    2A0 : 00000000;
    2A1 : 00000000;
    2A2 : 00000000;
    2A3 : 00000000;
    2A4 : 00000000;
    2A5 : 00000000;
    2A6 : 00000000;
    2A7 : 00000000;
    2A8 : 00000000;
    2A9 : 00000000;
    2AA : 00000000;
    2AB : 00000000;
    2AC : 00000000;
    2AD : 00000000;
    2AE : 00000000;
    2AF : 00000000;
    2B0 : 00000000;
    2B1 : 00000000;
    2B2 : 00000000;
    2B3 : 00000000;
    2B4 : 00000000;
    2B5 : 00000000;
    2B6 : 00000000;
    2B7 : 00000000;
    2B8 : 00000000;
    2B9 : 00000000;
    2BA : 00000000;
    2BB : 00000000;
    2BC : 00000000;
    2BD : 00000000;
    2BE : 00000000;
    2BF : 00000000;
    2C0 : 00000000;
    2C1 : 00000000;
    2C2 : 00000000;
    2C3 : 00000000;
    2C4 : 00000000;
    2C5 : 00000000;
    2C6 : 00000000;
    2C7 : 00000000;
    2C8 : 00000000;
    2C9 : 00000000;
    2CA : 00000000;
    2CB : 00000000;
    2CC : 00000000;
    2CD : 00000000;
    2CE : 00000000;
    2CF : 00000000;
    2D0 : 00000000;
    2D1 : 00000000;
    2D2 : 00000000;
    2D3 : 00000000;
    2D4 : 00000000;
    2D5 : 00000000;
    2D6 : 00000000;
    2D7 : 00000000;
    2D8 : 00000000;
    2D9 : 00000000;
    2DA : 00000000;
    2DB : 00000000;
    2DC : 00000000;
    2DD : 00000000;
    2DE : 00000000;
    2DF : 00000000;
    2E0 : 00000000;
    2E1 : 00000000;
    2E2 : 00000000;
    2E3 : 00000000;
    2E4 : 00000000;
    2E5 : 00000000;
    2E6 : 00000000;
    2E7 : 00000000;
    2E8 : 00000000;
    2E9 : 00000000;
    2EA : 00000000;
    2EB : 00000000;
    2EC : 00000000;
    2ED : 00000000;
    2EE : 00000000;
    2EF : 00000000;
    2F0 : 00000000;
    2F1 : 00000000;
    2F2 : 00000000;
    2F3 : 00000000;
    2F4 : 00000000;
    2F5 : 00000000;
    2F6 : 00000000;
    2F7 : 00000000;
    2F8 : 00000000;
    2F9 : 00000000;
    2FA : 00000000;
    2FB : 00000000;
    2FC : 00000000;
    2FD : 00000000;
    2FE : 00000000;
    2FF : 00000000;
    300 : EFEFEFEF;
    301 : EFEFEFEF;
    302 : 0000EFEF;
    303 : 00000000;
[304..3FF] : 0000000;
END;
