-- Copyright (C) 2017  Intel Corporation. All rights reserved.
-- Your use of Intel Corporation's design tools, logic functions 
-- and other software and tools, and its AMPP partner logic 
-- functions, and any output files from any of the foregoing 
-- (including device programming or simulation files), and any 
-- associated documentation or information are expressly subject 
-- to the terms and conditions of the Intel Program License 
-- Subscription Agreement, the Intel Quartus Prime License Agreement,
-- the Intel FPGA IP License Agreement, or other applicable license
-- agreement, including, without limitation, that your use is for
-- the sole purpose of programming logic devices manufactured by
-- Intel and sold by Intel or its authorized distributors.  Please
-- refer to the applicable agreement for further details.

-- Quartus Prime generated Memory Initialization File (.mif)

WIDTH=32;
DEPTH=1024;

ADDRESS_RADIX=HEX;
DATA_RADIX=HEX;

CONTENT BEGIN
    0 : 04C0006F;
    1 : 34202F73;
    2 : 00800F93;
    3 : 03FF0A63;
    4 : 00900F93;
    5 : 03FF0663;
    6 : 00B00F93;
    7 : 03FF0263;
    8 : 00000F17;
    9 : FE0F0F13;
    A : 000F0463;
    B : 000F0067;
    C : 34202F73;
    D : 000F5463;
    E : 0040006F;
    F : 5391E193;
    10 : 00000F17;
    11 : 7C3F2023;
    12 : FF9FF06F;
    13 : F1402573;
    14 : 00051063;
    15 : 00000297;
    16 : 01028293;
    17 : 30529073;
    18 : 18005073;
    19 : 00000297;
    1A : 01C28293;
    1B : 30529073;
    1C : FFF00293;
    1D : 3B029073;
    1E : 01F00293;
    1F : 3A029073;
    20 : 00000297;
    21 : 01828293;
    22 : 30529073;
    23 : 30205073;
    24 : 30305073;
    25 : 30405073;
    26 : 00000193;
    27 : 00000297;
    28 : F6828293;
    29 : 30529073;
    2A : 00100513;
    2B : 01F51513;
    2C : 00054863;
    2D : 0FF0000F;
    2E : 00100193;
    2F : 00000073;
    30 : 00000297;
    31 : F4028293;
    32 : 00028E63;
    33 : 10529073;
    34 : 0000B2B7;
    35 : 10928293;
    36 : 30229073;
    37 : 30202373;
    38 : F4629EE3;
    39 : 30005073;
    3A : 00000297;
    3B : 01428293;
    3C : 34129073;
    3D : F1402573;
    3E : 30200073;
    3F : 00001097;
    40 : B0408093;
    41 : 0000DF03;
    42 : 0FF00E93;
    43 : 00200193;
    44 : 27DF1663;
    45 : 00001097;
    46 : AEC08093;
    47 : 0020DF03;
    48 : 00010EB7;
    49 : F00E8E93;
    4A : 00300193;
    4B : 25DF1863;
    4C : 00001097;
    4D : AD008093;
    4E : 0040DF03;
    4F : 00001EB7;
    50 : FF0E8E93;
    51 : 00400193;
    52 : 23DF1A63;
    53 : 00001097;
    54 : AB408093;
    55 : 0060DF03;
    56 : 0000FEB7;
    57 : 00FE8E93;
    58 : 00500193;
    59 : 21DF1C63;
    5A : 00001097;
    5B : A9E08093;
    5C : FFA0DF03;
    5D : 0FF00E93;
    5E : 00600193;
    5F : 21DF1063;
    60 : 00001097;
    61 : A8608093;
    62 : FFC0DF03;
    63 : 00010EB7;
    64 : F00E8E93;
    65 : 00700193;
    66 : 1FDF1263;
    67 : 00001097;
    68 : A6A08093;
    69 : FFE0DF03;
    6A : 00001EB7;
    6B : FF0E8E93;
    6C : 00800193;
    6D : 1DDF1463;
    6E : 00001097;
    6F : A4E08093;
    70 : 0000DF03;
    71 : 0000FEB7;
    72 : 00FE8E93;
    73 : 00900193;
    74 : 1BDF1663;
    75 : 00001097;
    76 : A2C08093;
    77 : FE008093;
    78 : 0200D283;
    79 : 0FF00E93;
    7A : 00A00193;
    7B : 19D29863;
    7C : 00001097;
    7D : A1008093;
    7E : FFB08093;
    7F : 0070D283;
    80 : 00010EB7;
    81 : F00E8E93;
    82 : 00B00193;
    83 : 17D29863;
    84 : 00C00193;
    85 : 00000213;
    86 : 00001097;
    87 : 9EA08093;
    88 : 0020DF03;
    89 : 000F0313;
    8A : 00001EB7;
    8B : FF0E8E93;
    8C : 15D31663;
    8D : 00120213;
    8E : 00200293;
    8F : FC521EE3;
    90 : 00D00193;
    91 : 00000213;
    92 : 00001097;
    93 : 9BC08093;
    94 : 0020DF03;
    95 : 00000013;
    96 : 000F0313;
    97 : 0000FEB7;
    98 : 00FE8E93;
    99 : 11D31C63;
    9A : 00120213;
    9B : 00200293;
    9C : FC521CE3;
    9D : 00E00193;
    9E : 00000213;
    9F : 00001097;
    A0 : 98408093;
    A1 : 0020DF03;
    A2 : 00000013;
    A3 : 00000013;
    A4 : 000F0313;
    A5 : 00010EB7;
    A6 : F00E8E93;
    A7 : 0FD31063;
    A8 : 00120213;
    A9 : 00200293;
    AA : FC521AE3;
    AB : 00F00193;
    AC : 00000213;
    AD : 00001097;
    AE : 94E08093;
    AF : 0020DF03;
    B0 : 00001EB7;
    B1 : FF0E8E93;
    B2 : 0BDF1A63;
    B3 : 00120213;
    B4 : 00200293;
    B5 : FE5210E3;
    B6 : 01000193;
    B7 : 00000213;
    B8 : 00001097;
    B9 : 92408093;
    BA : 00000013;
    BB : 0020DF03;
    BC : 0000FEB7;
    BD : 00FE8E93;
    BE : 09DF1263;
    BF : 00120213;
    C0 : 00200293;
    C1 : FC521EE3;
    C2 : 01100193;
    C3 : 00000213;
    C4 : 00001097;
    C5 : 8F008093;
    C6 : 00000013;
    C7 : 00000013;
    C8 : 0020DF03;
    C9 : 00010EB7;
    CA : F00E8E93;
    CB : 05DF1863;
    CC : 00120213;
    CD : 00200293;
    CE : FC521CE3;
    CF : 00001297;
    D0 : 8C428293;
    D1 : 0002D103;
    D2 : 00200113;
    D3 : 00200E93;
    D4 : 01200193;
    D5 : 03D11463;
    D6 : 00001297;
    D7 : 8A828293;
    D8 : 0002D103;
    D9 : 00000013;
    DA : 00200113;
    DB : 00200E93;
    DC : 01300193;
    DD : 01D11463;
    DE : 00301C63;
    DF : 0FF0000F;
    E0 : 00018063;
    E1 : 00119193;
    E2 : 0011E193;
    E3 : 00000073;
    E4 : 0FF0000F;
    E5 : 00100193;
    E6 : 00000073;
    E7 : C0001073;
    E8 : 00000000;
    E9 : 00000000;
    EA : 00000000;
    EB : 00000000;
    EC : 00000000;
    ED : 00000000;
    EE : 00000000;
    EF : 00000000;
    F0 : 00000000;
    F1 : 00000000;
    F2 : 00000000;
    F3 : 00000000;
    F4 : 00000000;
    F5 : 00000000;
    F6 : 00000000;
    F7 : 00000000;
    F8 : 00000000;
    F9 : 00000000;
    FA : 00000000;
    FB : 00000000;
    FC : 00000000;
    FD : 00000000;
    FE : 00000000;
    FF : 00000000;
    100 : 00000000;
    101 : 00000000;
    102 : 00000000;
    103 : 00000000;
    104 : 00000000;
    105 : 00000000;
    106 : 00000000;
    107 : 00000000;
    108 : 00000000;
    109 : 00000000;
    10A : 00000000;
    10B : 00000000;
    10C : 00000000;
    10D : 00000000;
    10E : 00000000;
    10F : 00000000;
    110 : 00000000;
    111 : 00000000;
    112 : 00000000;
    113 : 00000000;
    114 : 00000000;
    115 : 00000000;
    116 : 00000000;
    117 : 00000000;
    118 : 00000000;
    119 : 00000000;
    11A : 00000000;
    11B : 00000000;
    11C : 00000000;
    11D : 00000000;
    11E : 00000000;
    11F : 00000000;
    120 : 00000000;
    121 : 00000000;
    122 : 00000000;
    123 : 00000000;
    124 : 00000000;
    125 : 00000000;
    126 : 00000000;
    127 : 00000000;
    128 : 00000000;
    129 : 00000000;
    12A : 00000000;
    12B : 00000000;
    12C : 00000000;
    12D : 00000000;
    12E : 00000000;
    12F : 00000000;
    130 : 00000000;
    131 : 00000000;
    132 : 00000000;
    133 : 00000000;
    134 : 00000000;
    135 : 00000000;
    136 : 00000000;
    137 : 00000000;
    138 : 00000000;
    139 : 00000000;
    13A : 00000000;
    13B : 00000000;
    13C : 00000000;
    13D : 00000000;
    13E : 00000000;
    13F : 00000000;
    140 : 00000000;
    141 : 00000000;
    142 : 00000000;
    143 : 00000000;
    144 : 00000000;
    145 : 00000000;
    146 : 00000000;
    147 : 00000000;
    148 : 00000000;
    149 : 00000000;
    14A : 00000000;
    14B : 00000000;
    14C : 00000000;
    14D : 00000000;
    14E : 00000000;
    14F : 00000000;
    150 : 00000000;
    151 : 00000000;
    152 : 00000000;
    153 : 00000000;
    154 : 00000000;
    155 : 00000000;
    156 : 00000000;
    157 : 00000000;
    158 : 00000000;
    159 : 00000000;
    15A : 00000000;
    15B : 00000000;
    15C : 00000000;
    15D : 00000000;
    15E : 00000000;
    15F : 00000000;
    160 : 00000000;
    161 : 00000000;
    162 : 00000000;
    163 : 00000000;
    164 : 00000000;
    165 : 00000000;
    166 : 00000000;
    167 : 00000000;
    168 : 00000000;
    169 : 00000000;
    16A : 00000000;
    16B : 00000000;
    16C : 00000000;
    16D : 00000000;
    16E : 00000000;
    16F : 00000000;
    170 : 00000000;
    171 : 00000000;
    172 : 00000000;
    173 : 00000000;
    174 : 00000000;
    175 : 00000000;
    176 : 00000000;
    177 : 00000000;
    178 : 00000000;
    179 : 00000000;
    17A : 00000000;
    17B : 00000000;
    17C : 00000000;
    17D : 00000000;
    17E : 00000000;
    17F : 00000000;
    180 : 00000000;
    181 : 00000000;
    182 : 00000000;
    183 : 00000000;
    184 : 00000000;
    185 : 00000000;
    186 : 00000000;
    187 : 00000000;
    188 : 00000000;
    189 : 00000000;
    18A : 00000000;
    18B : 00000000;
    18C : 00000000;
    18D : 00000000;
    18E : 00000000;
    18F : 00000000;
    190 : 00000000;
    191 : 00000000;
    192 : 00000000;
    193 : 00000000;
    194 : 00000000;
    195 : 00000000;
    196 : 00000000;
    197 : 00000000;
    198 : 00000000;
    199 : 00000000;
    19A : 00000000;
    19B : 00000000;
    19C : 00000000;
    19D : 00000000;
    19E : 00000000;
    19F : 00000000;
    1A0 : 00000000;
    1A1 : 00000000;
    1A2 : 00000000;
    1A3 : 00000000;
    1A4 : 00000000;
    1A5 : 00000000;
    1A6 : 00000000;
    1A7 : 00000000;
    1A8 : 00000000;
    1A9 : 00000000;
    1AA : 00000000;
    1AB : 00000000;
    1AC : 00000000;
    1AD : 00000000;
    1AE : 00000000;
    1AF : 00000000;
    1B0 : 00000000;
    1B1 : 00000000;
    1B2 : 00000000;
    1B3 : 00000000;
    1B4 : 00000000;
    1B5 : 00000000;
    1B6 : 00000000;
    1B7 : 00000000;
    1B8 : 00000000;
    1B9 : 00000000;
    1BA : 00000000;
    1BB : 00000000;
    1BC : 00000000;
    1BD : 00000000;
    1BE : 00000000;
    1BF : 00000000;
    1C0 : 00000000;
    1C1 : 00000000;
    1C2 : 00000000;
    1C3 : 00000000;
    1C4 : 00000000;
    1C5 : 00000000;
    1C6 : 00000000;
    1C7 : 00000000;
    1C8 : 00000000;
    1C9 : 00000000;
    1CA : 00000000;
    1CB : 00000000;
    1CC : 00000000;
    1CD : 00000000;
    1CE : 00000000;
    1CF : 00000000;
    1D0 : 00000000;
    1D1 : 00000000;
    1D2 : 00000000;
    1D3 : 00000000;
    1D4 : 00000000;
    1D5 : 00000000;
    1D6 : 00000000;
    1D7 : 00000000;
    1D8 : 00000000;
    1D9 : 00000000;
    1DA : 00000000;
    1DB : 00000000;
    1DC : 00000000;
    1DD : 00000000;
    1DE : 00000000;
    1DF : 00000000;
    1E0 : 00000000;
    1E1 : 00000000;
    1E2 : 00000000;
    1E3 : 00000000;
    1E4 : 00000000;
    1E5 : 00000000;
    1E6 : 00000000;
    1E7 : 00000000;
    1E8 : 00000000;
    1E9 : 00000000;
    1EA : 00000000;
    1EB : 00000000;
    1EC : 00000000;
    1ED : 00000000;
    1EE : 00000000;
    1EF : 00000000;
    1F0 : 00000000;
    1F1 : 00000000;
    1F2 : 00000000;
    1F3 : 00000000;
    1F4 : 00000000;
    1F5 : 00000000;
    1F6 : 00000000;
    1F7 : 00000000;
    1F8 : 00000000;
    1F9 : 00000000;
    1FA : 00000000;
    1FB : 00000000;
    1FC : 00000000;
    1FD : 00000000;
    1FE : 00000000;
    1FF : 00000000;
    200 : 00000000;
    201 : 00000000;
    202 : 00000000;
    203 : 00000000;
    204 : 00000000;
    205 : 00000000;
    206 : 00000000;
    207 : 00000000;
    208 : 00000000;
    209 : 00000000;
    20A : 00000000;
    20B : 00000000;
    20C : 00000000;
    20D : 00000000;
    20E : 00000000;
    20F : 00000000;
    210 : 00000000;
    211 : 00000000;
    212 : 00000000;
    213 : 00000000;
    214 : 00000000;
    215 : 00000000;
    216 : 00000000;
    217 : 00000000;
    218 : 00000000;
    219 : 00000000;
    21A : 00000000;
    21B : 00000000;
    21C : 00000000;
    21D : 00000000;
    21E : 00000000;
    21F : 00000000;
    220 : 00000000;
    221 : 00000000;
    222 : 00000000;
    223 : 00000000;
    224 : 00000000;
    225 : 00000000;
    226 : 00000000;
    227 : 00000000;
    228 : 00000000;
    229 : 00000000;
    22A : 00000000;
    22B : 00000000;
    22C : 00000000;
    22D : 00000000;
    22E : 00000000;
    22F : 00000000;
    230 : 00000000;
    231 : 00000000;
    232 : 00000000;
    233 : 00000000;
    234 : 00000000;
    235 : 00000000;
    236 : 00000000;
    237 : 00000000;
    238 : 00000000;
    239 : 00000000;
    23A : 00000000;
    23B : 00000000;
    23C : 00000000;
    23D : 00000000;
    23E : 00000000;
    23F : 00000000;
    240 : 00000000;
    241 : 00000000;
    242 : 00000000;
    243 : 00000000;
    244 : 00000000;
    245 : 00000000;
    246 : 00000000;
    247 : 00000000;
    248 : 00000000;
    249 : 00000000;
    24A : 00000000;
    24B : 00000000;
    24C : 00000000;
    24D : 00000000;
    24E : 00000000;
    24F : 00000000;
    250 : 00000000;
    251 : 00000000;
    252 : 00000000;
    253 : 00000000;
    254 : 00000000;
    255 : 00000000;
    256 : 00000000;
    257 : 00000000;
    258 : 00000000;
    259 : 00000000;
    25A : 00000000;
    25B : 00000000;
    25C : 00000000;
    25D : 00000000;
    25E : 00000000;
    25F : 00000000;
    260 : 00000000;
    261 : 00000000;
    262 : 00000000;
    263 : 00000000;
    264 : 00000000;
    265 : 00000000;
    266 : 00000000;
    267 : 00000000;
    268 : 00000000;
    269 : 00000000;
    26A : 00000000;
    26B : 00000000;
    26C : 00000000;
    26D : 00000000;
    26E : 00000000;
    26F : 00000000;
    270 : 00000000;
    271 : 00000000;
    272 : 00000000;
    273 : 00000000;
    274 : 00000000;
    275 : 00000000;
    276 : 00000000;
    277 : 00000000;
    278 : 00000000;
    279 : 00000000;
    27A : 00000000;
    27B : 00000000;
    27C : 00000000;
    27D : 00000000;
    27E : 00000000;
    27F : 00000000;
    280 : 00000000;
    281 : 00000000;
    282 : 00000000;
    283 : 00000000;
    284 : 00000000;
    285 : 00000000;
    286 : 00000000;
    287 : 00000000;
    288 : 00000000;
    289 : 00000000;
    28A : 00000000;
    28B : 00000000;
    28C : 00000000;
    28D : 00000000;
    28E : 00000000;
    28F : 00000000;
    290 : 00000000;
    291 : 00000000;
    292 : 00000000;
    293 : 00000000;
    294 : 00000000;
    295 : 00000000;
    296 : 00000000;
    297 : 00000000;
    298 : 00000000;
    299 : 00000000;
    29A : 00000000;
    29B : 00000000;
    29C : 00000000;
    29D : 00000000;
    29E : 00000000;
    29F : 00000000;
    2A0 : 00000000;
    2A1 : 00000000;
    2A2 : 00000000;
    2A3 : 00000000;
    2A4 : 00000000;
    2A5 : 00000000;
    2A6 : 00000000;
    2A7 : 00000000;
    2A8 : 00000000;
    2A9 : 00000000;
    2AA : 00000000;
    2AB : 00000000;
    2AC : 00000000;
    2AD : 00000000;
    2AE : 00000000;
    2AF : 00000000;
    2B0 : 00000000;
    2B1 : 00000000;
    2B2 : 00000000;
    2B3 : 00000000;
    2B4 : 00000000;
    2B5 : 00000000;
    2B6 : 00000000;
    2B7 : 00000000;
    2B8 : 00000000;
    2B9 : 00000000;
    2BA : 00000000;
    2BB : 00000000;
    2BC : 00000000;
    2BD : 00000000;
    2BE : 00000000;
    2BF : 00000000;
    2C0 : 00000000;
    2C1 : 00000000;
    2C2 : 00000000;
    2C3 : 00000000;
    2C4 : 00000000;
    2C5 : 00000000;
    2C6 : 00000000;
    2C7 : 00000000;
    2C8 : 00000000;
    2C9 : 00000000;
    2CA : 00000000;
    2CB : 00000000;
    2CC : 00000000;
    2CD : 00000000;
    2CE : 00000000;
    2CF : 00000000;
    2D0 : 00000000;
    2D1 : 00000000;
    2D2 : 00000000;
    2D3 : 00000000;
    2D4 : 00000000;
    2D5 : 00000000;
    2D6 : 00000000;
    2D7 : 00000000;
    2D8 : 00000000;
    2D9 : 00000000;
    2DA : 00000000;
    2DB : 00000000;
    2DC : 00000000;
    2DD : 00000000;
    2DE : 00000000;
    2DF : 00000000;
    2E0 : 00000000;
    2E1 : 00000000;
    2E2 : 00000000;
    2E3 : 00000000;
    2E4 : 00000000;
    2E5 : 00000000;
    2E6 : 00000000;
    2E7 : 00000000;
    2E8 : 00000000;
    2E9 : 00000000;
    2EA : 00000000;
    2EB : 00000000;
    2EC : 00000000;
    2ED : 00000000;
    2EE : 00000000;
    2EF : 00000000;
    2F0 : 00000000;
    2F1 : 00000000;
    2F2 : 00000000;
    2F3 : 00000000;
    2F4 : 00000000;
    2F5 : 00000000;
    2F6 : 00000000;
    2F7 : 00000000;
    2F8 : 00000000;
    2F9 : 00000000;
    2FA : 00000000;
    2FB : 00000000;
    2FC : 00000000;
    2FD : 00000000;
    2FE : 00000000;
    2FF : 00000000;
    300 : FF0000FF;
    301 : F00F0FF0;
    302 : 00000000;
    303 : 00000000;
[304..3FF] : 0000000;
END;
