-- Copyright (C) 2017  Intel Corporation. All rights reserved.
-- Your use of Intel Corporation's design tools, logic functions 
-- and other software and tools, and its AMPP partner logic 
-- functions, and any output files from any of the foregoing 
-- (including device programming or simulation files), and any 
-- associated documentation or information are expressly subject 
-- to the terms and conditions of the Intel Program License 
-- Subscription Agreement, the Intel Quartus Prime License Agreement,
-- the Intel FPGA IP License Agreement, or other applicable license
-- agreement, including, without limitation, that your use is for
-- the sole purpose of programming logic devices manufactured by
-- Intel and sold by Intel or its authorized distributors.  Please
-- refer to the applicable agreement for further details.

-- Quartus Prime generated Memory Initialization File (.mif)

WIDTH=32;
DEPTH=1024;

ADDRESS_RADIX=HEX;
DATA_RADIX=HEX;

CONTENT BEGIN
    0 : 04C0006F;
    1 : 34202F73;
    2 : 00800F93;
    3 : 03FF0A63;
    4 : 00900F93;
    5 : 03FF0663;
    6 : 00B00F93;
    7 : 03FF0263;
    8 : 00000F17;
    9 : FE0F0F13;
    A : 000F0463;
    B : 000F0067;
    C : 34202F73;
    D : 000F5463;
    E : 0040006F;
    F : 5391E193;
    10 : 00000F17;
    11 : 7C3F2023;
    12 : FF9FF06F;
    13 : F1402573;
    14 : 00051063;
    15 : 00000297;
    16 : 01028293;
    17 : 30529073;
    18 : 18005073;
    19 : 00000297;
    1A : 01C28293;
    1B : 30529073;
    1C : FFF00293;
    1D : 3B029073;
    1E : 01F00293;
    1F : 3A029073;
    20 : 00000297;
    21 : 01828293;
    22 : 30529073;
    23 : 30205073;
    24 : 30305073;
    25 : 30405073;
    26 : 00000193;
    27 : 00000297;
    28 : F6828293;
    29 : 30529073;
    2A : 00100513;
    2B : 01F51513;
    2C : 00054863;
    2D : 0FF0000F;
    2E : 00100193;
    2F : 00000073;
    30 : 00000297;
    31 : F4028293;
    32 : 00028E63;
    33 : 10529073;
    34 : 0000B2B7;
    35 : 10928293;
    36 : 30229073;
    37 : 30202373;
    38 : F4629EE3;
    39 : 30005073;
    3A : 00000297;
    3B : 01428293;
    3C : 34129073;
    3D : F1402573;
    3E : 30200073;
    3F : 800000B7;
    40 : 00000113;
    41 : 0020DF33;
    42 : 80000EB7;
    43 : 00200193;
    44 : 57DF1863;
    45 : 800000B7;
    46 : 00100113;
    47 : 0020DF33;
    48 : 40000EB7;
    49 : 00300193;
    4A : 55DF1C63;
    4B : 800000B7;
    4C : 00700113;
    4D : 0020DF33;
    4E : 01000EB7;
    4F : 00400193;
    50 : 55DF1063;
    51 : 800000B7;
    52 : 00E00113;
    53 : 0020DF33;
    54 : 00020EB7;
    55 : 00500193;
    56 : 53DF1463;
    57 : 800000B7;
    58 : 00108093;
    59 : 01F00113;
    5A : 0020DF33;
    5B : 00100E93;
    5C : 00600193;
    5D : 51DF1663;
    5E : FFF00093;
    5F : 00000113;
    60 : 0020DF33;
    61 : FFF00E93;
    62 : 00700193;
    63 : 4FDF1A63;
    64 : FFF00093;
    65 : 00100113;
    66 : 0020DF33;
    67 : 80000EB7;
    68 : FFFE8E93;
    69 : 00800193;
    6A : 4DDF1C63;
    6B : FFF00093;
    6C : 00700113;
    6D : 0020DF33;
    6E : 02000EB7;
    6F : FFFE8E93;
    70 : 00900193;
    71 : 4BDF1E63;
    72 : FFF00093;
    73 : 00E00113;
    74 : 0020DF33;
    75 : 00040EB7;
    76 : FFFE8E93;
    77 : 00A00193;
    78 : 4BDF1063;
    79 : FFF00093;
    7A : 01F00113;
    7B : 0020DF33;
    7C : 00100E93;
    7D : 00B00193;
    7E : 49DF1463;
    7F : 212120B7;
    80 : 12108093;
    81 : 00000113;
    82 : 0020DF33;
    83 : 21212EB7;
    84 : 121E8E93;
    85 : 00C00193;
    86 : 47DF1463;
    87 : 212120B7;
    88 : 12108093;
    89 : 00100113;
    8A : 0020DF33;
    8B : 10909EB7;
    8C : 090E8E93;
    8D : 00D00193;
    8E : 45DF1463;
    8F : 212120B7;
    90 : 12108093;
    91 : 00700113;
    92 : 0020DF33;
    93 : 00424EB7;
    94 : 242E8E93;
    95 : 00E00193;
    96 : 43DF1463;
    97 : 212120B7;
    98 : 12108093;
    99 : 00E00113;
    9A : 0020DF33;
    9B : 00008EB7;
    9C : 484E8E93;
    9D : 00F00193;
    9E : 41DF1463;
    9F : 212120B7;
    A0 : 12108093;
    A1 : 01F00113;
    A2 : 0020DF33;
    A3 : 00000E93;
    A4 : 01000193;
    A5 : 3FDF1663;
    A6 : 212120B7;
    A7 : 12108093;
    A8 : FC000113;
    A9 : 0020DF33;
    AA : 21212EB7;
    AB : 121E8E93;
    AC : 01100193;
    AD : 3DDF1663;
    AE : 212120B7;
    AF : 12108093;
    B0 : FC100113;
    B1 : 0020DF33;
    B2 : 10909EB7;
    B3 : 090E8E93;
    B4 : 01200193;
    B5 : 3BDF1663;
    B6 : 212120B7;
    B7 : 12108093;
    B8 : FC700113;
    B9 : 0020DF33;
    BA : 00424EB7;
    BB : 242E8E93;
    BC : 01300193;
    BD : 39DF1663;
    BE : 212120B7;
    BF : 12108093;
    C0 : FCE00113;
    C1 : 0020DF33;
    C2 : 00008EB7;
    C3 : 484E8E93;
    C4 : 01400193;
    C5 : 37DF1663;
    C6 : 212120B7;
    C7 : 12108093;
    C8 : FFF00113;
    C9 : 0020DF33;
    CA : 00000E93;
    CB : 01500193;
    CC : 35DF1863;
    CD : 800000B7;
    CE : 00700113;
    CF : 0020D0B3;
    D0 : 01000EB7;
    D1 : 01600193;
    D2 : 33D09C63;
    D3 : 800000B7;
    D4 : 00E00113;
    D5 : 0020D133;
    D6 : 00020EB7;
    D7 : 01700193;
    D8 : 33D11063;
    D9 : 00700093;
    DA : 0010D0B3;
    DB : 00000E93;
    DC : 01800193;
    DD : 31D09663;
    DE : 00000213;
    DF : 800000B7;
    E0 : 00700113;
    E1 : 0020DF33;
    E2 : 000F0313;
    E3 : 00120213;
    E4 : 00200293;
    E5 : FE5214E3;
    E6 : 01000EB7;
    E7 : 01900193;
    E8 : 2FD31063;
    E9 : 00000213;
    EA : 800000B7;
    EB : 00E00113;
    EC : 0020DF33;
    ED : 00000013;
    EE : 000F0313;
    EF : 00120213;
    F0 : 00200293;
    F1 : FE5212E3;
    F2 : 00020EB7;
    F3 : 01A00193;
    F4 : 2BD31863;
    F5 : 00000213;
    F6 : 800000B7;
    F7 : 01F00113;
    F8 : 0020DF33;
    F9 : 00000013;
    FA : 00000013;
    FB : 000F0313;
    FC : 00120213;
    FD : 00200293;
    FE : FE5210E3;
    FF : 00100E93;
    100 : 01B00193;
    101 : 27D31E63;
    102 : 00000213;
    103 : 800000B7;
    104 : 00700113;
    105 : 0020DF33;
    106 : 00120213;
    107 : 00200293;
    108 : FE5216E3;
    109 : 01000EB7;
    10A : 01C00193;
    10B : 25DF1A63;
    10C : 00000213;
    10D : 800000B7;
    10E : 00E00113;
    10F : 00000013;
    110 : 0020DF33;
    111 : 00120213;
    112 : 00200293;
    113 : FE5214E3;
    114 : 00020EB7;
    115 : 01D00193;
    116 : 23DF1463;
    117 : 00000213;
    118 : 800000B7;
    119 : 01F00113;
    11A : 00000013;
    11B : 00000013;
    11C : 0020DF33;
    11D : 00120213;
    11E : 00200293;
    11F : FE5212E3;
    120 : 00100E93;
    121 : 01E00193;
    122 : 1FDF1C63;
    123 : 00000213;
    124 : 800000B7;
    125 : 00000013;
    126 : 00700113;
    127 : 0020DF33;
    128 : 00120213;
    129 : 00200293;
    12A : FE5214E3;
    12B : 01000EB7;
    12C : 01F00193;
    12D : 1DDF1663;
    12E : 00000213;
    12F : 800000B7;
    130 : 00000013;
    131 : 00E00113;
    132 : 00000013;
    133 : 0020DF33;
    134 : 00120213;
    135 : 00200293;
    136 : FE5212E3;
    137 : 00020EB7;
    138 : 02000193;
    139 : 19DF1E63;
    13A : 00000213;
    13B : 800000B7;
    13C : 00000013;
    13D : 00000013;
    13E : 01F00113;
    13F : 0020DF33;
    140 : 00120213;
    141 : 00200293;
    142 : FE5212E3;
    143 : 00100E93;
    144 : 02100193;
    145 : 17DF1663;
    146 : 00000213;
    147 : 00700113;
    148 : 800000B7;
    149 : 0020DF33;
    14A : 00120213;
    14B : 00200293;
    14C : FE5216E3;
    14D : 01000EB7;
    14E : 02200193;
    14F : 15DF1263;
    150 : 00000213;
    151 : 00E00113;
    152 : 800000B7;
    153 : 00000013;
    154 : 0020DF33;
    155 : 00120213;
    156 : 00200293;
    157 : FE5214E3;
    158 : 00020EB7;
    159 : 02300193;
    15A : 11DF1C63;
    15B : 00000213;
    15C : 01F00113;
    15D : 800000B7;
    15E : 00000013;
    15F : 00000013;
    160 : 0020DF33;
    161 : 00120213;
    162 : 00200293;
    163 : FE5212E3;
    164 : 00100E93;
    165 : 02400193;
    166 : 0FDF1463;
    167 : 00000213;
    168 : 00700113;
    169 : 00000013;
    16A : 800000B7;
    16B : 0020DF33;
    16C : 00120213;
    16D : 00200293;
    16E : FE5214E3;
    16F : 01000EB7;
    170 : 02500193;
    171 : 0BDF1E63;
    172 : 00000213;
    173 : 00E00113;
    174 : 00000013;
    175 : 800000B7;
    176 : 00000013;
    177 : 0020DF33;
    178 : 00120213;
    179 : 00200293;
    17A : FE5212E3;
    17B : 00020EB7;
    17C : 02600193;
    17D : 09DF1663;
    17E : 00000213;
    17F : 01F00113;
    180 : 00000013;
    181 : 00000013;
    182 : 800000B7;
    183 : 0020DF33;
    184 : 00120213;
    185 : 00200293;
    186 : FE5212E3;
    187 : 00100E93;
    188 : 02700193;
    189 : 05DF1E63;
    18A : 00F00093;
    18B : 00105133;
    18C : 00000E93;
    18D : 02800193;
    18E : 05D11463;
    18F : 02000093;
    190 : 0000D133;
    191 : 02000E93;
    192 : 02900193;
    193 : 03D11A63;
    194 : 000050B3;
    195 : 00000E93;
    196 : 02A00193;
    197 : 03D09263;
    198 : 40000093;
    199 : 00001137;
    19A : 80010113;
    19B : 0020D033;
    19C : 00000E93;
    19D : 02B00193;
    19E : 01D01463;
    19F : 00301C63;
    1A0 : 0FF0000F;
    1A1 : 00018063;
    1A2 : 00119193;
    1A3 : 0011E193;
    1A4 : 00000073;
    1A5 : 0FF0000F;
    1A6 : 00100193;
    1A7 : 00000073;
    1A8 : C0001073;
    1A9 : 00000000;
    1AA : 00000000;
    1AB : 00000000;
    1AC : 00000000;
    1AD : 00000000;
    1AE : 00000000;
    1AF : 00000000;
    1B0 : 00000000;
    1B1 : 00000000;
    1B2 : 00000000;
    1B3 : 00000000;
    1B4 : 00000000;
    1B5 : 00000000;
    1B6 : 00000000;
    1B7 : 00000000;
    1B8 : 00000000;
    1B9 : 00000000;
    1BA : 00000000;
    1BB : 00000000;
    1BC : 00000000;
    1BD : 00000000;
    1BE : 00000000;
    1BF : 00000000;
    1C0 : 00000000;
    1C1 : 00000000;
    1C2 : 00000000;
    1C3 : 00000000;
    1C4 : 00000000;
    1C5 : 00000000;
    1C6 : 00000000;
    1C7 : 00000000;
    1C8 : 00000000;
    1C9 : 00000000;
    1CA : 00000000;
    1CB : 00000000;
    1CC : 00000000;
    1CD : 00000000;
    1CE : 00000000;
    1CF : 00000000;
    1D0 : 00000000;
    1D1 : 00000000;
    1D2 : 00000000;
    1D3 : 00000000;
    1D4 : 00000000;
    1D5 : 00000000;
    1D6 : 00000000;
    1D7 : 00000000;
    1D8 : 00000000;
    1D9 : 00000000;
    1DA : 00000000;
    1DB : 00000000;
    1DC : 00000000;
    1DD : 00000000;
    1DE : 00000000;
    1DF : 00000000;
    1E0 : 00000000;
    1E1 : 00000000;
    1E2 : 00000000;
    1E3 : 00000000;
    1E4 : 00000000;
    1E5 : 00000000;
    1E6 : 00000000;
    1E7 : 00000000;
    1E8 : 00000000;
    1E9 : 00000000;
    1EA : 00000000;
    1EB : 00000000;
    1EC : 00000000;
    1ED : 00000000;
    1EE : 00000000;
    1EF : 00000000;
    1F0 : 00000000;
    1F1 : 00000000;
    1F2 : 00000000;
    1F3 : 00000000;
    1F4 : 00000000;
    1F5 : 00000000;
    1F6 : 00000000;
    1F7 : 00000000;
    1F8 : 00000000;
    1F9 : 00000000;
    1FA : 00000000;
    1FB : 00000000;
    1FC : 00000000;
    1FD : 00000000;
    1FE : 00000000;
    1FF : 00000000;
    200 : 00000000;
    201 : 00000000;
    202 : 00000000;
    203 : 00000000;
    204 : 00000000;
    205 : 00000000;
    206 : 00000000;
    207 : 00000000;
    208 : 00000000;
    209 : 00000000;
    20A : 00000000;
    20B : 00000000;
    20C : 00000000;
    20D : 00000000;
    20E : 00000000;
    20F : 00000000;
    210 : 00000000;
    211 : 00000000;
[212..3FF] : 0000000;
END;
